


 34 38  0  0  0  0  0  0  0  0999 V2000
   -8.4460   -5.4813  -24.6216 N   0  0  0  0  0  0  0  0  0  0  0  0
   -7.3881   -5.1475  -23.6120 C   0  0  0  0  0  0  0  0  0  0  0  0
   -7.4481   -3.8485  -22.8644 C   0  0  0  0  0  0  0  0  0  0  0  0
   -7.3765   -2.5947  -22.0441 C   0  0  0  0  0  0  0  0  0  0  0  0
   -7.9858   -1.5572  -21.8746 O   0  0  0  0  0  0  0  0  0  0  0  0
   -6.1602   -2.6811  -21.1706 N   0  0  0  0  0  0  0  0  0  0  0  0
   -5.4800   -3.9883  -21.4509 C   0  0  0  0  0  0  0  0  0  0  0  0
   -6.2761   -4.7098  -22.4978 C   0  0  0  0  0  0  0  0  0  0  0  0
   -5.9561   -6.0562  -23.0764 C   0  0  0  0  0  0  0  0  0  0  0  0
   -8.5661   -2.8833  -23.1264 C   0  0  0  0  0  0  0  0  0  0  0  0
   -8.6261   -1.5843  -22.3788 C   0  0  0  0  0  0  0  0  0  0  0  0
   -9.7441   -0.6192  -22.6407 C   0  0  0  0  0  0  0  0  0  0  0  0
   -9.8041    0.6799  -21.8931 F   0  0  0  0  0  0  0  0  0  0  0  0
  -10.8020   -0.9530  -23.6504 C   0  0  0  0  0  0  0  0  0  0  0  0
  -10.7420   -2.2520  -24.3980 C   0  0  0  0  0  0  0  0  0  0  0  0
   -9.6240   -3.2171  -24.1360 C   0  0  0  0  0  0  0  0  0  0  0  0
   -9.5640   -4.5162  -24.8836 C   0  0  0  0  0  0  0  0  0  0  0  0
  -10.6219   -4.8501  -25.8932 O   0  0  0  0  0  0  0  0  0  0  0  0
   -5.7041   -1.6426  -20.1890 C   0  0  0  0  0  0  0  0  0  0  0  0
   -6.1061   -1.7452  -18.7475 C   0  0  0  0  0  0  0  0  0  0  0  0
   -5.6500   -0.7067  -17.7659 N   0  0  0  0  0  0  0  0  0  0  0  0
   -4.7919    0.4344  -18.2258 C   0  0  0  0  0  0  0  0  0  0  0  0
   -4.3898    0.5370  -19.6673 C   0  0  0  0  0  0  0  0  0  0  0  0
   -3.5317    1.6781  -20.1272 C   0  0  0  0  0  0  0  0  0  0  0  0
   -3.1297    1.7806  -21.5687 C   0  0  0  0  0  0  0  0  0  0  0  0
   -3.5858    0.7421  -22.5503 C   0  0  0  0  0  0  0  0  0  0  0  0
   -4.4439   -0.3989  -22.0904 C   0  0  0  0  0  0  0  0  0  0  0  0
   -4.8459   -0.5015  -20.6489 C   0  0  0  0  0  0  0  0  0  0  0  0
   -8.3860   -6.7804  -25.3692 C   0  0  0  0  0  0  0  0  0  0  0  0
   -9.5240   -7.1878  -26.2575 C   0  0  0  0  0  0  0  0  0  0  0  0
   -8.2596   -6.7898  -28.4920 C   0  0  0  0  0  0  0  0  0  0  0  0
   -9.5335   -6.7772  -27.7001 N   0  0  0  0  0  0  0  0  0  0  0  0
  -10.4062   -6.4894  -28.1427 H   0  0  0  0  0  0  0  0  0  0  0  0
  -10.3998   -6.7686  -27.1617 H   0  0  0  0  0  0  0  0  0  0  0  0
 31 32  1  0  0  0
 32 30  1  0  0  0
 30 29  1  0  0  0
 29  1  1  0  0  0
  1  2  1  0  0  0
  3  2  1  0  0  0
  3  4  1  0  0  0
  4  5  2  0  0  0
  4  6  1  0  0  0
  6 19  1  0  0  0
 19 20  2  0  0  0
 20 21  1  0  0  0
 21 22  2  0  0  0
 22 23  1  0  0  0
 23 24  2  0  0  0
 24 25  1  0  0  0
 25 26  2  0  0  0
 26 27  1  0  0  0
 27 28  2  0  0  0
  6  7  1  0  0  0
  7  8  1  0  0  0
  8  9  1  0  0  0
  3 10  1  0  0  0
 10 11  2  0  0  0
 11 12  1  0  0  0
 12 13  1  0  0  0
 12 14  2  0  0  0
 14 15  1  0  0  0
 15 16  2  0  0  0
 16 17  1  0  0  0
 17 18  2  0  0  0
 17  1  1  0  0  0
  8  3  1  0  0  0
 16 10  1  0  0  0
 28 19  1  0  0  0
 28 23  1  0  0  0
 32 33  1  0  0  0
 32 34  1  0  0  0
M  CHG 1  32   1
M  END
> <minimizedAffinity>
-8.77999

> <CNNscore>
0.6207422018

> <CNNaffinity>
6.2422757149

> <CNN_VS>
3.8748440742

> <CNNaffinity_variance>
0.3375632763

$$$$



 34 38  0  0  0  0  0  0  0  0999 V2000
   -9.6032    2.6214  -24.2811 N   0  0  0  0  0  0  0  0  0  0  0  0
   -8.6385    1.4813  -24.4205 C   0  0  0  0  0  0  0  0  0  0  0  0
   -9.0961    0.0760  -24.1642 C   0  0  0  0  0  0  0  0  0  0  0  0
   -9.4071   -1.3744  -23.9415 C   0  0  0  0  0  0  0  0  0  0  0  0
  -10.3387   -2.0893  -23.6294 O   0  0  0  0  0  0  0  0  0  0  0  0
   -8.1542   -2.1607  -24.1905 N   0  0  0  0  0  0  0  0  0  0  0  0
   -7.0688   -1.1962  -24.5669 C   0  0  0  0  0  0  0  0  0  0  0  0
   -7.6509    0.1861  -24.5507 C   0  0  0  0  0  0  0  0  0  0  0  0
   -6.9167    1.4557  -24.8657 C   0  0  0  0  0  0  0  0  0  0  0  0
  -10.5185   -0.1892  -23.7684 C   0  0  0  0  0  0  0  0  0  0  0  0
  -10.9761   -1.5944  -23.5120 C   0  0  0  0  0  0  0  0  0  0  0  0
  -12.3984   -1.8596  -23.1163 C   0  0  0  0  0  0  0  0  0  0  0  0
  -12.8561   -3.2649  -22.8599 F   0  0  0  0  0  0  0  0  0  0  0  0
  -13.3631   -0.7194  -22.9769 C   0  0  0  0  0  0  0  0  0  0  0  0
  -12.9055    0.6858  -23.2332 C   0  0  0  0  0  0  0  0  0  0  0  0
  -11.4832    0.9510  -23.6290 C   0  0  0  0  0  0  0  0  0  0  0  0
  -11.0255    2.3563  -23.8853 C   0  0  0  0  0  0  0  0  0  0  0  0
  -11.9902    3.4964  -23.7459 O   0  0  0  0  0  0  0  0  0  0  0  0
   -8.0118   -3.6500  -24.0819 C   0  0  0  0  0  0  0  0  0  0  0  0
   -7.4410   -4.2600  -22.8361 C   0  0  0  0  0  0  0  0  0  0  0  0
   -7.2986   -5.7493  -22.7276 N   0  0  0  0  0  0  0  0  0  0  0  0
   -7.7269   -6.6285  -23.8649 C   0  0  0  0  0  0  0  0  0  0  0  0
   -8.2976   -6.0184  -25.1108 C   0  0  0  0  0  0  0  0  0  0  0  0
   -8.7259   -6.8977  -26.2481 C   0  0  0  0  0  0  0  0  0  0  0  0
   -9.2966   -6.2875  -27.4939 C   0  0  0  0  0  0  0  0  0  0  0  0
   -9.4391   -4.7983  -27.6025 C   0  0  0  0  0  0  0  0  0  0  0  0
   -9.0108   -3.9191  -26.4651 C   0  0  0  0  0  0  0  0  0  0  0  0
   -8.4401   -4.5291  -25.2193 C   0  0  0  0  0  0  0  0  0  0  0  0
   -9.1455    4.0268  -24.5374 C   0  0  0  0  0  0  0  0  0  0  0  0
   -9.9786    5.1837  -24.0710 C   0  0  0  0  0  0  0  0  0  0  0  0
  -11.5677    5.9216  -25.9894 C   0  0  0  0  0  0  0  0  0  0  0  0
  -10.4360    6.2222  -25.0519 N   0  0  0  0  0  0  0  0  0  0  0  0
   -9.9775    7.1329  -25.0814 H   0  0  0  0  0  0  0  0  0  0  0  0
   -9.6664    6.4267  -24.4144 H   0  0  0  0  0  0  0  0  0  0  0  0
 31 32  1  0  0  0
 32 30  1  0  0  0
 30 29  1  0  0  0
 29  1  1  0  0  0
  1  2  1  0  0  0
  3  2  1  0  0  0
  3  4  1  0  0  0
  4  5  2  0  0  0
  4  6  1  0  0  0
  6 19  1  0  0  0
 19 20  2  0  0  0
 20 21  1  0  0  0
 21 22  2  0  0  0
 22 23  1  0  0  0
 23 24  2  0  0  0
 24 25  1  0  0  0
 25 26  2  0  0  0
 26 27  1  0  0  0
 27 28  2  0  0  0
  6  7  1  0  0  0
  7  8  1  0  0  0
  8  9  1  0  0  0
  3 10  1  0  0  0
 10 11  2  0  0  0
 11 12  1  0  0  0
 12 13  1  0  0  0
 12 14  2  0  0  0
 14 15  1  0  0  0
 15 16  2  0  0  0
 16 17  1  0  0  0
 17 18  2  0  0  0
 17  1  1  0  0  0
  8  3  1  0  0  0
 16 10  1  0  0  0
 28 19  1  0  0  0
 28 23  1  0  0  0
 32 33  1  0  0  0
 32 34  1  0  0  0
M  CHG 1  32   1
M  END
> <minimizedAffinity>
-7.12944

> <CNNscore>
0.5615557432

> <CNNaffinity>
6.2806859016

> <CNN_VS>
3.5269551277

> <CNNaffinity_variance>
0.1058600098

$$$$



 34 38  0  0  0  0  0  0  0  0999 V2000
   -7.6857   -4.8175  -26.3031 N   0  0  0  0  0  0  0  0  0  0  0  0
   -7.6344   -3.5102  -25.5693 C   0  0  0  0  0  0  0  0  0  0  0  0
   -7.1459   -3.4645  -24.1519 C   0  0  0  0  0  0  0  0  0  0  0  0
   -6.6833   -3.2639  -22.7391 C   0  0  0  0  0  0  0  0  0  0  0  0
   -6.2544   -3.9050  -21.8003 O   0  0  0  0  0  0  0  0  0  0  0  0
   -6.7996   -1.8038  -22.4161 N   0  0  0  0  0  0  0  0  0  0  0  0
   -7.3340   -1.1018  -23.6292 C   0  0  0  0  0  0  0  0  0  0  0  0
   -7.5480   -2.1282  -24.7020 C   0  0  0  0  0  0  0  0  0  0  0  0
   -8.0722   -1.8645  -26.0825 C   0  0  0  0  0  0  0  0  0  0  0  0
   -6.7087   -4.7260  -23.4681 C   0  0  0  0  0  0  0  0  0  0  0  0
   -6.2202   -4.6803  -22.0507 C   0  0  0  0  0  0  0  0  0  0  0  0
   -5.7831   -5.9418  -21.3670 C   0  0  0  0  0  0  0  0  0  0  0  0
   -5.2946   -5.8961  -19.9495 F   0  0  0  0  0  0  0  0  0  0  0  0
   -5.8345   -7.2491  -22.1008 C   0  0  0  0  0  0  0  0  0  0  0  0
   -6.3230   -7.2948  -23.5183 C   0  0  0  0  0  0  0  0  0  0  0  0
   -6.7601   -6.0333  -24.2019 C   0  0  0  0  0  0  0  0  0  0  0  0
   -7.2486   -6.0790  -25.6195 C   0  0  0  0  0  0  0  0  0  0  0  0
   -7.3000   -7.3862  -26.3533 O   0  0  0  0  0  0  0  0  0  0  0  0
   -6.4439   -1.1588  -21.1094 C   0  0  0  0  0  0  0  0  0  0  0  0
   -7.3241   -1.3569  -19.9110 C   0  0  0  0  0  0  0  0  0  0  0  0
   -6.9684   -0.7120  -18.6043 N   0  0  0  0  0  0  0  0  0  0  0  0
   -5.7325    0.1311  -18.4960 C   0  0  0  0  0  0  0  0  0  0  0  0
   -4.8523    0.3293  -19.6943 C   0  0  0  0  0  0  0  0  0  0  0  0
   -3.6164    1.1724  -19.5859 C   0  0  0  0  0  0  0  0  0  0  0  0
   -2.7363    1.3705  -20.7844 C   0  0  0  0  0  0  0  0  0  0  0  0
   -3.0920    0.7255  -22.0911 C   0  0  0  0  0  0  0  0  0  0  0  0
   -4.3278   -0.1176  -22.1994 C   0  0  0  0  0  0  0  0  0  0  0  0
   -5.2080   -0.3157  -21.0010 C   0  0  0  0  0  0  0  0  0  0  0  0
   -8.1743   -4.8631  -27.7207 C   0  0  0  0  0  0  0  0  0  0  0  0
   -8.8084   -6.1129  -28.2555 C   0  0  0  0  0  0  0  0  0  0  0  0
  -10.6874   -6.0551  -26.4622 C   0  0  0  0  0  0  0  0  0  0  0  0
  -10.1790   -6.5139  -27.7967 N   0  0  0  0  0  0  0  0  0  0  0  0
  -10.7654   -7.0987  -28.3923 H   0  0  0  0  0  0  0  0  0  0  0  0
   -9.8333   -6.8259  -28.7042 H   0  0  0  0  0  0  0  0  0  0  0  0
 31 32  1  0  0  0
 32 30  1  0  0  0
 30 29  1  0  0  0
 29  1  1  0  0  0
  1  2  1  0  0  0
  3  2  1  0  0  0
  3  4  1  0  0  0
  4  5  2  0  0  0
  4  6  1  0  0  0
  6 19  1  0  0  0
 19 20  2  0  0  0
 20 21  1  0  0  0
 21 22  2  0  0  0
 22 23  1  0  0  0
 23 24  2  0  0  0
 24 25  1  0  0  0
 25 26  2  0  0  0
 26 27  1  0  0  0
 27 28  2  0  0  0
  6  7  1  0  0  0
  7  8  1  0  0  0
  8  9  1  0  0  0
  3 10  1  0  0  0
 10 11  2  0  0  0
 11 12  1  0  0  0
 12 13  1  0  0  0
 12 14  2  0  0  0
 14 15  1  0  0  0
 15 16  2  0  0  0
 16 17  1  0  0  0
 17 18  2  0  0  0
 17  1  1  0  0  0
  8  3  1  0  0  0
 16 10  1  0  0  0
 28 19  1  0  0  0
 28 23  1  0  0  0
 32 33  1  0  0  0
 32 34  1  0  0  0
M  CHG 1  32   1
M  END
> <minimizedAffinity>
-8.07291

> <CNNscore>
0.4919126034

> <CNNaffinity>
6.2382988930

> <CNN_VS>
3.0686979294

> <CNNaffinity_variance>
0.2337394059

$$$$



 34 38  0  0  0  0  0  0  0  0999 V2000
  -11.4281    3.3201  -24.2176 N   0  0  0  0  0  0  0  0  0  0  0  0
  -10.0937    2.6350  -24.2133 C   0  0  0  0  0  0  0  0  0  0  0  0
  -10.0032    1.1711  -23.8991 C   0  0  0  0  0  0  0  0  0  0  0  0
   -9.7575   -0.2791  -23.6051 C   0  0  0  0  0  0  0  0  0  0  0  0
  -10.3710   -1.2868  -23.3141 O   0  0  0  0  0  0  0  0  0  0  0  0
   -8.2827   -0.5306  -23.7124 N   0  0  0  0  0  0  0  0  0  0  0  0
   -7.6167    0.7643  -24.0728 C   0  0  0  0  0  0  0  0  0  0  0  0
   -8.6801    1.8160  -24.1882 C   0  0  0  0  0  0  0  0  0  0  0  0
   -8.4591    3.2592  -24.5323 C   0  0  0  0  0  0  0  0  0  0  0  0
  -11.2471    0.3922  -23.5891 C   0  0  0  0  0  0  0  0  0  0  0  0
  -11.1566   -1.0717  -23.2749 C   0  0  0  0  0  0  0  0  0  0  0  0
  -12.4005   -1.8505  -22.9649 C   0  0  0  0  0  0  0  0  0  0  0  0
  -12.3100   -3.3145  -22.6506 F   0  0  0  0  0  0  0  0  0  0  0  0
  -13.7349   -1.1654  -22.9691 C   0  0  0  0  0  0  0  0  0  0  0  0
  -13.8254    0.2985  -23.2833 C   0  0  0  0  0  0  0  0  0  0  0  0
  -12.5815    1.0773  -23.5933 C   0  0  0  0  0  0  0  0  0  0  0  0
  -12.6720    2.5413  -23.9075 C   0  0  0  0  0  0  0  0  0  0  0  0
  -14.0064    3.2263  -23.9118 O   0  0  0  0  0  0  0  0  0  0  0  0
   -7.5945   -1.8459  -23.4972 C   0  0  0  0  0  0  0  0  0  0  0  0
   -6.9440   -2.1452  -22.1791 C   0  0  0  0  0  0  0  0  0  0  0  0
   -6.2559   -3.4606  -21.9639 N   0  0  0  0  0  0  0  0  0  0  0  0
   -6.2183   -4.4766  -23.0667 C   0  0  0  0  0  0  0  0  0  0  0  0
   -6.8688   -4.1773  -24.3847 C   0  0  0  0  0  0  0  0  0  0  0  0
   -6.8312   -5.1934  -25.4876 C   0  0  0  0  0  0  0  0  0  0  0  0
   -7.4818   -4.8940  -26.8056 C   0  0  0  0  0  0  0  0  0  0  0  0
   -8.1699   -3.5787  -27.0209 C   0  0  0  0  0  0  0  0  0  0  0  0
   -8.2075   -2.5627  -25.9181 C   0  0  0  0  0  0  0  0  0  0  0  0
   -7.5569   -2.8620  -24.6000 C   0  0  0  0  0  0  0  0  0  0  0  0
  -11.5186    4.7840  -24.5318 C   0  0  0  0  0  0  0  0  0  0  0  0
  -12.6684    5.5935  -24.0096 C   0  0  0  0  0  0  0  0  0  0  0  0
  -13.5975    6.3175  -26.3253 C   0  0  0  0  0  0  0  0  0  0  0  0
  -13.8327    5.9054  -24.9023 N   0  0  0  0  0  0  0  0  0  0  0  0
  -14.7845    5.8372  -24.5418 H   0  0  0  0  0  0  0  0  0  0  0  0
  -13.9927    5.6251  -23.9347 H   0  0  0  0  0  0  0  0  0  0  0  0
 31 32  1  0  0  0
 32 30  1  0  0  0
 30 29  1  0  0  0
 29  1  1  0  0  0
  1  2  1  0  0  0
  3  2  1  0  0  0
  3  4  1  0  0  0
  4  5  2  0  0  0
  4  6  1  0  0  0
  6 19  1  0  0  0
 19 20  2  0  0  0
 20 21  1  0  0  0
 21 22  2  0  0  0
 22 23  1  0  0  0
 23 24  2  0  0  0
 24 25  1  0  0  0
 25 26  2  0  0  0
 26 27  1  0  0  0
 27 28  2  0  0  0
  6  7  1  0  0  0
  7  8  1  0  0  0
  8  9  1  0  0  0
  3 10  1  0  0  0
 10 11  2  0  0  0
 11 12  1  0  0  0
 12 13  1  0  0  0
 12 14  2  0  0  0
 14 15  1  0  0  0
 15 16  2  0  0  0
 16 17  1  0  0  0
 17 18  2  0  0  0
 17  1  1  0  0  0
  8  3  1  0  0  0
 16 10  1  0  0  0
 28 19  1  0  0  0
 28 23  1  0  0  0
 32 33  1  0  0  0
 32 34  1  0  0  0
M  CHG 1  32   1
M  END
> <minimizedAffinity>
-7.06642

> <CNNscore>
0.4631432295

> <CNNaffinity>
6.3599419594

> <CNN_VS>
2.9455640316

> <CNNaffinity_variance>
0.4453923702

$$$$



 34 38  0  0  0  0  0  0  0  0999 V2000
   -9.3158    2.6099  -24.2568 N   0  0  0  0  0  0  0  0  0  0  0  0
   -8.3756    1.4469  -24.3734 C   0  0  0  0  0  0  0  0  0  0  0  0
   -8.8735    0.0528  -24.1317 C   0  0  0  0  0  0  0  0  0  0  0  0
   -9.2251   -1.3899  -23.9199 C   0  0  0  0  0  0  0  0  0  0  0  0
  -10.1814   -2.0826  -23.6334 O   0  0  0  0  0  0  0  0  0  0  0  0
   -7.9855   -2.2060  -24.1379 N   0  0  0  0  0  0  0  0  0  0  0  0
   -6.8678   -1.2676  -24.4843 C   0  0  0  0  0  0  0  0  0  0  0  0
   -7.4166    0.1284  -24.4805 C   0  0  0  0  0  0  0  0  0  0  0  0
   -6.6440    1.3802  -24.7740 C   0  0  0  0  0  0  0  0  0  0  0  0
  -10.3116   -0.1784  -23.7733 C   0  0  0  0  0  0  0  0  0  0  0  0
  -10.8095   -1.5726  -23.5316 C   0  0  0  0  0  0  0  0  0  0  0  0
  -12.2476   -1.8037  -23.1732 C   0  0  0  0  0  0  0  0  0  0  0  0
  -12.7455   -3.1979  -22.9315 F   0  0  0  0  0  0  0  0  0  0  0  0
  -13.1878   -0.6408  -23.0567 C   0  0  0  0  0  0  0  0  0  0  0  0
  -12.6899    0.7534  -23.2984 C   0  0  0  0  0  0  0  0  0  0  0  0
  -11.2518    0.9845  -23.6567 C   0  0  0  0  0  0  0  0  0  0  0  0
  -10.7538    2.3787  -23.8985 C   0  0  0  0  0  0  0  0  0  0  0  0
  -11.6940    3.5417  -23.7819 O   0  0  0  0  0  0  0  0  0  0  0  0
   -7.8819   -3.6984  -24.0285 C   0  0  0  0  0  0  0  0  0  0  0  0
   -7.2923   -4.3212  -22.7979 C   0  0  0  0  0  0  0  0  0  0  0  0
   -7.1887   -5.8136  -22.6885 N   0  0  0  0  0  0  0  0  0  0  0  0
   -7.6748   -6.6833  -23.8099 C   0  0  0  0  0  0  0  0  0  0  0  0
   -8.2644   -6.0605  -25.0405 C   0  0  0  0  0  0  0  0  0  0  0  0
   -8.7505   -6.9302  -26.1619 C   0  0  0  0  0  0  0  0  0  0  0  0
   -9.3401   -6.3074  -27.3925 C   0  0  0  0  0  0  0  0  0  0  0  0
   -9.4437   -4.8150  -27.5019 C   0  0  0  0  0  0  0  0  0  0  0  0
   -8.9576   -3.9453  -26.3805 C   0  0  0  0  0  0  0  0  0  0  0  0
   -8.3680   -4.5681  -25.1499 C   0  0  0  0  0  0  0  0  0  0  0  0
   -8.8178    4.0040  -24.4986 C   0  0  0  0  0  0  0  0  0  0  0  0
   -8.9789    5.0524  -23.4380 C   0  0  0  0  0  0  0  0  0  0  0  0
   -6.7865    4.2480  -22.2994 C   0  0  0  0  0  0  0  0  0  0  0  0
   -7.9256    5.2203  -22.3833 N   0  0  0  0  0  0  0  0  0  0  0  0
   -7.9840    5.9956  -21.7230 H   0  0  0  0  0  0  0  0  0  0  0  0
   -8.7002    5.8814  -22.4403 H   0  0  0  0  0  0  0  0  0  0  0  0
 31 32  1  0  0  0
 32 30  1  0  0  0
 30 29  1  0  0  0
 29  1  1  0  0  0
  1  2  1  0  0  0
  3  2  1  0  0  0
  3  4  1  0  0  0
  4  5  2  0  0  0
  4  6  1  0  0  0
  6 19  1  0  0  0
 19 20  2  0  0  0
 20 21  1  0  0  0
 21 22  2  0  0  0
 22 23  1  0  0  0
 23 24  2  0  0  0
 24 25  1  0  0  0
 25 26  2  0  0  0
 26 27  1  0  0  0
 27 28  2  0  0  0
  6  7  1  0  0  0
  7  8  1  0  0  0
  8  9  1  0  0  0
  3 10  1  0  0  0
 10 11  2  0  0  0
 11 12  1  0  0  0
 12 13  1  0  0  0
 12 14  2  0  0  0
 14 15  1  0  0  0
 15 16  2  0  0  0
 16 17  1  0  0  0
 17 18  2  0  0  0
 17  1  1  0  0  0
  8  3  1  0  0  0
 16 10  1  0  0  0
 28 19  1  0  0  0
 28 23  1  0  0  0
 32 33  1  0  0  0
 32 34  1  0  0  0
M  CHG 1  32   1
M  END
> <minimizedAffinity>
-7.37298

> <CNNscore>
0.3387455940

> <CNNaffinity>
6.0068278313

> <CNN_VS>
2.0347864628

> <CNNaffinity_variance>
0.1751547754

$$$$



 34 38  0  0  0  0  0  0  0  0999 V2000
   -5.4286   -6.0804  -23.4922 N   0  0  0  0  0  0  0  0  0  0  0  0
   -6.0036   -4.8145  -22.9294 C   0  0  0  0  0  0  0  0  0  0  0  0
   -7.0333   -4.0484  -23.7057 C   0  0  0  0  0  0  0  0  0  0  0  0
   -8.0646   -3.1799  -24.3630 C   0  0  0  0  0  0  0  0  0  0  0  0
   -8.7247   -3.1272  -25.3818 O   0  0  0  0  0  0  0  0  0  0  0  0
   -8.3466   -2.0233  -23.4504 N   0  0  0  0  0  0  0  0  0  0  0  0
   -7.4895   -2.1770  -22.2290 C   0  0  0  0  0  0  0  0  0  0  0  0
   -6.6778   -3.4286  -22.3868 C   0  0  0  0  0  0  0  0  0  0  0  0
   -5.6850   -3.9659  -21.3991 C   0  0  0  0  0  0  0  0  0  0  0  0
   -7.4881   -4.5483  -25.0449 C   0  0  0  0  0  0  0  0  0  0  0  0
   -8.5178   -3.7822  -25.8212 C   0  0  0  0  0  0  0  0  0  0  0  0
   -8.9726   -4.2821  -27.1603 C   0  0  0  0  0  0  0  0  0  0  0  0
  -10.0024   -3.5160  -27.9367 F   0  0  0  0  0  0  0  0  0  0  0  0
   -8.3976   -5.5480  -27.7231 C   0  0  0  0  0  0  0  0  0  0  0  0
   -7.3679   -6.3141  -26.9468 C   0  0  0  0  0  0  0  0  0  0  0  0
   -6.9132   -5.8142  -25.6077 C   0  0  0  0  0  0  0  0  0  0  0  0
   -5.8834   -6.5803  -24.8313 C   0  0  0  0  0  0  0  0  0  0  0  0
   -5.3084   -7.8463  -25.3940 O   0  0  0  0  0  0  0  0  0  0  0  0
   -9.3155   -0.9088  -23.7130 C   0  0  0  0  0  0  0  0  0  0  0  0
   -8.8314    0.3824  -24.3032 C   0  0  0  0  0  0  0  0  0  0  0  0
   -9.8003    1.4970  -24.5659 N   0  0  0  0  0  0  0  0  0  0  0  0
  -11.2534    1.3202  -24.2383 C   0  0  0  0  0  0  0  0  0  0  0  0
  -11.7375    0.0290  -23.6481 C   0  0  0  0  0  0  0  0  0  0  0  0
  -13.1907   -0.1477  -23.3205 C   0  0  0  0  0  0  0  0  0  0  0  0
  -13.6747   -1.4390  -22.7303 C   0  0  0  0  0  0  0  0  0  0  0  0
  -12.7058   -2.5535  -22.4676 C   0  0  0  0  0  0  0  0  0  0  0  0
  -11.2527   -2.3768  -22.7952 C   0  0  0  0  0  0  0  0  0  0  0  0
  -10.7686   -1.0855  -23.3854 C   0  0  0  0  0  0  0  0  0  0  0  0
   -4.3988   -6.8465  -22.7158 C   0  0  0  0  0  0  0  0  0  0  0  0
   -3.2185   -7.4445  -23.4223 C   0  0  0  0  0  0  0  0  0  0  0  0
   -0.7873   -6.6762  -22.9236 C   0  0  0  0  0  0  0  0  0  0  0  0
   -2.0321   -6.5895  -23.7561 N   0  0  0  0  0  0  0  0  0  0  0  0
   -2.0718   -5.9493  -24.5491 H   0  0  0  0  0  0  0  0  0  0  0  0
   -2.8785   -6.5306  -24.3221 H   0  0  0  0  0  0  0  0  0  0  0  0
 31 32  1  0  0  0
 32 30  1  0  0  0
 30 29  1  0  0  0
 29  1  1  0  0  0
  1  2  1  0  0  0
  3  2  1  0  0  0
  3  4  1  0  0  0
  4  5  2  0  0  0
  4  6  1  0  0  0
  6 19  1  0  0  0
 19 20  2  0  0  0
 20 21  1  0  0  0
 21 22  2  0  0  0
 22 23  1  0  0  0
 23 24  2  0  0  0
 24 25  1  0  0  0
 25 26  2  0  0  0
 26 27  1  0  0  0
 27 28  2  0  0  0
  6  7  1  0  0  0
  7  8  1  0  0  0
  8  9  1  0  0  0
  3 10  1  0  0  0
 10 11  2  0  0  0
 11 12  1  0  0  0
 12 13  1  0  0  0
 12 14  2  0  0  0
 14 15  1  0  0  0
 15 16  2  0  0  0
 16 17  1  0  0  0
 17 18  2  0  0  0
 17  1  1  0  0  0
  8  3  1  0  0  0
 16 10  1  0  0  0
 28 19  1  0  0  0
 28 23  1  0  0  0
 32 33  1  0  0  0
 32 34  1  0  0  0
M  CHG 1  32   1
M  END
> <minimizedAffinity>
-6.88476

> <CNNscore>
0.3322380483

> <CNNaffinity>
6.1032161713

> <CNN_VS>
2.0277206898

> <CNNaffinity_variance>
0.1149393916

$$$$



 34 38  0  0  0  0  0  0  0  0999 V2000
  -12.2582    4.6694  -24.1674 N   0  0  0  0  0  0  0  0  0  0  0  0
  -10.7645    4.5894  -24.0551 C   0  0  0  0  0  0  0  0  0  0  0  0
  -10.1019    3.2700  -23.7904 C   0  0  0  0  0  0  0  0  0  0  0  0
   -9.3026    2.0278  -23.5296 C   0  0  0  0  0  0  0  0  0  0  0  0
   -9.4655    0.8385  -23.3414 O   0  0  0  0  0  0  0  0  0  0  0  0
   -7.8520    2.4082  -23.4971 N   0  0  0  0  0  0  0  0  0  0  0  0
   -7.7548    3.8856  -23.7379 C   0  0  0  0  0  0  0  0  0  0  0  0
   -9.1453    4.4181  -23.9191 C   0  0  0  0  0  0  0  0  0  0  0  0
   -9.5143    5.8479  -24.1829 C   0  0  0  0  0  0  0  0  0  0  0  0
  -10.9329    2.0305  -23.6380 C   0  0  0  0  0  0  0  0  0  0  0  0
  -10.2703    0.7111  -23.3734 C   0  0  0  0  0  0  0  0  0  0  0  0
  -11.1014   -0.5283  -23.2210 C   0  0  0  0  0  0  0  0  0  0  0  0
  -10.4388   -1.8478  -22.9563 F   0  0  0  0  0  0  0  0  0  0  0  0
  -12.5950   -0.4483  -23.3333 C   0  0  0  0  0  0  0  0  0  0  0  0
  -13.2576    0.8711  -23.5980 C   0  0  0  0  0  0  0  0  0  0  0  0
  -12.4266    2.1105  -23.7504 C   0  0  0  0  0  0  0  0  0  0  0  0
  -13.0892    3.4300  -24.0151 C   0  0  0  0  0  0  0  0  0  0  0  0
  -14.5829    3.5100  -24.1274 O   0  0  0  0  0  0  0  0  0  0  0  0
   -6.7008    1.4751  -23.2647 C   0  0  0  0  0  0  0  0  0  0  0  0
   -6.1812    1.2566  -21.8746 C   0  0  0  0  0  0  0  0  0  0  0  0
   -5.0300    0.3235  -21.6422 N   0  0  0  0  0  0  0  0  0  0  0  0
   -4.3984   -0.3911  -22.7999 C   0  0  0  0  0  0  0  0  0  0  0  0
   -4.9180   -0.1727  -24.1900 C   0  0  0  0  0  0  0  0  0  0  0  0
   -4.2862   -0.8873  -25.3478 C   0  0  0  0  0  0  0  0  0  0  0  0
   -4.8059   -0.6688  -26.7378 C   0  0  0  0  0  0  0  0  0  0  0  0
   -5.9571    0.2643  -26.9702 C   0  0  0  0  0  0  0  0  0  0  0  0
   -6.5887    0.9789  -25.8125 C   0  0  0  0  0  0  0  0  0  0  0  0
   -6.0692    0.7605  -24.4224 C   0  0  0  0  0  0  0  0  0  0  0  0
  -12.9208    5.9889  -24.4321 C   0  0  0  0  0  0  0  0  0  0  0  0
  -12.9957    6.5231  -25.8317 C   0  0  0  0  0  0  0  0  0  0  0  0
  -14.1149    6.5401  -28.1763 C   0  0  0  0  0  0  0  0  0  0  0  0
  -14.0167    5.9813  -26.7877 N   0  0  0  0  0  0  0  0  0  0  0  0
  -14.6441    5.2329  -26.4936 H   0  0  0  0  0  0  0  0  0  0  0  0
  -13.9498    5.6013  -25.8435 H   0  0  0  0  0  0  0  0  0  0  0  0
 31 32  1  0  0  0
 32 30  1  0  0  0
 30 29  1  0  0  0
 29  1  1  0  0  0
  1  2  1  0  0  0
  3  2  1  0  0  0
  3  4  1  0  0  0
  4  5  2  0  0  0
  4  6  1  0  0  0
  6 19  1  0  0  0
 19 20  2  0  0  0
 20 21  1  0  0  0
 21 22  2  0  0  0
 22 23  1  0  0  0
 23 24  2  0  0  0
 24 25  1  0  0  0
 25 26  2  0  0  0
 26 27  1  0  0  0
 27 28  2  0  0  0
  6  7  1  0  0  0
  7  8  1  0  0  0
  8  9  1  0  0  0
  3 10  1  0  0  0
 10 11  2  0  0  0
 11 12  1  0  0  0
 12 13  1  0  0  0
 12 14  2  0  0  0
 14 15  1  0  0  0
 15 16  2  0  0  0
 16 17  1  0  0  0
 17 18  2  0  0  0
 17  1  1  0  0  0
  8  3  1  0  0  0
 16 10  1  0  0  0
 28 19  1  0  0  0
 28 23  1  0  0  0
 32 33  1  0  0  0
 32 34  1  0  0  0
M  CHG 1  32   1
M  END
> <minimizedAffinity>
-6.66738

> <CNNscore>
0.2516397536

> <CNNaffinity>
5.7520437241

> <CNN_VS>
1.4474428892

> <CNNaffinity_variance>
0.1073084846

$$$$



 34 38  0  0  0  0  0  0  0  0999 V2000
   -9.3240   -1.8433  -23.3940 N   0  0  0  0  0  0  0  0  0  0  0  0
   -7.9633   -1.9123  -22.7665 C   0  0  0  0  0  0  0  0  0  0  0  0
   -7.1837   -0.6537  -22.5258 C   0  0  0  0  0  0  0  0  0  0  0  0
   -6.2911    0.5138  -22.2252 C   0  0  0  0  0  0  0  0  0  0  0  0
   -6.2753    1.7243  -22.3288 O   0  0  0  0  0  0  0  0  0  0  0  0
   -5.0324   -0.0133  -21.6024 N   0  0  0  0  0  0  0  0  0  0  0  0
   -5.1471   -1.5065  -21.5180 C   0  0  0  0  0  0  0  0  0  0  0  0
   -6.4766   -1.9023  -22.0887 C   0  0  0  0  0  0  0  0  0  0  0  0
   -7.0061   -3.3011  -22.2024 C   0  0  0  0  0  0  0  0  0  0  0  0
   -7.7647    0.6741  -22.9126 C   0  0  0  0  0  0  0  0  0  0  0  0
   -6.9851    1.9327  -22.6719 C   0  0  0  0  0  0  0  0  0  0  0  0
   -7.5662    3.2603  -23.0587 C   0  0  0  0  0  0  0  0  0  0  0  0
   -6.7865    4.5191  -22.8181 F   0  0  0  0  0  0  0  0  0  0  0  0
   -8.9269    3.3293  -23.6862 C   0  0  0  0  0  0  0  0  0  0  0  0
   -9.7065    2.0707  -23.9269 C   0  0  0  0  0  0  0  0  0  0  0  0
   -9.1254    0.7431  -23.5401 C   0  0  0  0  0  0  0  0  0  0  0  0
   -9.9051   -0.5157  -23.7808 C   0  0  0  0  0  0  0  0  0  0  0  0
  -11.2658   -0.4466  -24.4083 O   0  0  0  0  0  0  0  0  0  0  0  0
   -3.8643    0.8086  -21.1443 C   0  0  0  0  0  0  0  0  0  0  0  0
   -3.8434    1.3735  -19.7549 C   0  0  0  0  0  0  0  0  0  0  0  0
   -2.6753    2.1954  -19.2968 N   0  0  0  0  0  0  0  0  0  0  0  0
   -1.5279    2.4524  -20.2282 C   0  0  0  0  0  0  0  0  0  0  0  0
   -1.5487    1.8874  -21.6176 C   0  0  0  0  0  0  0  0  0  0  0  0
   -0.4012    2.1444  -22.5490 C   0  0  0  0  0  0  0  0  0  0  0  0
   -0.4221    1.5794  -23.9384 C   0  0  0  0  0  0  0  0  0  0  0  0
   -1.5903    0.7576  -24.3964 C   0  0  0  0  0  0  0  0  0  0  0  0
   -2.7377    0.5006  -23.4651 C   0  0  0  0  0  0  0  0  0  0  0  0
   -2.7169    1.0655  -22.0757 C   0  0  0  0  0  0  0  0  0  0  0  0
  -10.1037   -3.1020  -23.6347 C   0  0  0  0  0  0  0  0  0  0  0  0
  -11.5906   -3.1125  -23.4373 C   0  0  0  0  0  0  0  0  0  0  0  0
  -13.6679   -2.5989  -21.9639 C   0  0  0  0  0  0  0  0  0  0  0  0
  -12.1841   -2.5519  -22.1790 N   0  0  0  0  0  0  0  0  0  0  0  0
  -11.5788   -2.1386  -21.4697 H   0  0  0  0  0  0  0  0  0  0  0  0
  -11.1752   -2.5199  -22.3253 H   0  0  0  0  0  0  0  0  0  0  0  0
 31 32  1  0  0  0
 32 30  1  0  0  0
 30 29  1  0  0  0
 29  1  1  0  0  0
  1  2  1  0  0  0
  3  2  1  0  0  0
  3  4  1  0  0  0
  4  5  2  0  0  0
  4  6  1  0  0  0
  6 19  1  0  0  0
 19 20  2  0  0  0
 20 21  1  0  0  0
 21 22  2  0  0  0
 22 23  1  0  0  0
 23 24  2  0  0  0
 24 25  1  0  0  0
 25 26  2  0  0  0
 26 27  1  0  0  0
 27 28  2  0  0  0
  6  7  1  0  0  0
  7  8  1  0  0  0
  8  9  1  0  0  0
  3 10  1  0  0  0
 10 11  2  0  0  0
 11 12  1  0  0  0
 12 13  1  0  0  0
 12 14  2  0  0  0
 14 15  1  0  0  0
 15 16  2  0  0  0
 16 17  1  0  0  0
 17 18  2  0  0  0
 17  1  1  0  0  0
  8  3  1  0  0  0
 16 10  1  0  0  0
 28 19  1  0  0  0
 28 23  1  0  0  0
 32 33  1  0  0  0
 32 34  1  0  0  0
M  CHG 1  32   1
M  END
> <minimizedAffinity>
-7.07695

> <CNNscore>
0.2162228674

> <CNNaffinity>
5.8004732132

> <CNN_VS>
1.2541949749

> <CNNaffinity_variance>
0.0639156550

$$$$



 34 38  0  0  0  0  0  0  0  0999 V2000
   -7.7332   -3.8728  -26.0638 N   0  0  0  0  0  0  0  0  0  0  0  0
   -7.2283   -3.9227  -24.6523 C   0  0  0  0  0  0  0  0  0  0  0  0
   -6.9946   -2.6499  -23.8938 C   0  0  0  0  0  0  0  0  0  0  0  0
   -6.7154   -1.4669  -23.0149 C   0  0  0  0  0  0  0  0  0  0  0  0
   -6.7615   -0.2531  -23.0455 O   0  0  0  0  0  0  0  0  0  0  0  0
   -6.2285   -1.9774  -21.6912 N   0  0  0  0  0  0  0  0  0  0  0  0
   -6.2068   -3.4760  -21.7520 C   0  0  0  0  0  0  0  0  0  0  0  0
   -6.6803   -3.8916  -23.1133 C   0  0  0  0  0  0  0  0  0  0  0  0
   -6.8157   -5.3015  -23.6072 C   0  0  0  0  0  0  0  0  0  0  0  0
   -7.2659   -1.3270  -24.5470 C   0  0  0  0  0  0  0  0  0  0  0  0
   -7.0322   -0.0542  -23.7886 C   0  0  0  0  0  0  0  0  0  0  0  0
   -7.3035    1.2686  -24.4417 C   0  0  0  0  0  0  0  0  0  0  0  0
   -7.0698    2.5415  -23.6833 F   0  0  0  0  0  0  0  0  0  0  0  0
   -7.8084    1.3185  -25.8533 C   0  0  0  0  0  0  0  0  0  0  0  0
   -8.0420    0.0457  -26.6117 C   0  0  0  0  0  0  0  0  0  0  0  0
   -7.7708   -1.2771  -25.9586 C   0  0  0  0  0  0  0  0  0  0  0  0
   -8.0044   -2.5500  -26.7170 C   0  0  0  0  0  0  0  0  0  0  0  0
   -8.5093   -2.5001  -28.1286 O   0  0  0  0  0  0  0  0  0  0  0  0
   -5.8328   -1.1370  -20.5135 C   0  0  0  0  0  0  0  0  0  0  0  0
   -6.5935   -1.2455  -19.2252 C   0  0  0  0  0  0  0  0  0  0  0  0
   -6.1978   -0.4050  -18.0475 N   0  0  0  0  0  0  0  0  0  0  0  0
   -5.0414    0.5440  -18.1581 C   0  0  0  0  0  0  0  0  0  0  0  0
   -4.2808    0.6525  -19.4464 C   0  0  0  0  0  0  0  0  0  0  0  0
   -3.1244    1.6016  -19.5569 C   0  0  0  0  0  0  0  0  0  0  0  0
   -2.3638    1.7100  -20.8452 C   0  0  0  0  0  0  0  0  0  0  0  0
   -2.7595    0.8695  -22.0229 C   0  0  0  0  0  0  0  0  0  0  0  0
   -3.9159   -0.0795  -21.9124 C   0  0  0  0  0  0  0  0  0  0  0  0
   -4.6765   -0.1880  -20.6241 C   0  0  0  0  0  0  0  0  0  0  0  0
   -7.9668   -5.1457  -26.8223 C   0  0  0  0  0  0  0  0  0  0  0  0
   -7.5426   -6.4583  -26.2332 C   0  0  0  0  0  0  0  0  0  0  0  0
   -5.1303   -7.4225  -26.1999 C   0  0  0  0  0  0  0  0  0  0  0  0
   -6.4535   -7.2566  -26.8865 N   0  0  0  0  0  0  0  0  0  0  0  0
   -6.6128   -7.6866  -27.7976 H   0  0  0  0  0  0  0  0  0  0  0  0
   -7.3534   -7.1438  -27.3534 H   0  0  0  0  0  0  0  0  0  0  0  0
 31 32  1  0  0  0
 32 30  1  0  0  0
 30 29  1  0  0  0
 29  1  1  0  0  0
  1  2  1  0  0  0
  3  2  1  0  0  0
  3  4  1  0  0  0
  4  5  2  0  0  0
  4  6  1  0  0  0
  6 19  1  0  0  0
 19 20  2  0  0  0
 20 21  1  0  0  0
 21 22  2  0  0  0
 22 23  1  0  0  0
 23 24  2  0  0  0
 24 25  1  0  0  0
 25 26  2  0  0  0
 26 27  1  0  0  0
 27 28  2  0  0  0
  6  7  1  0  0  0
  7  8  1  0  0  0
  8  9  1  0  0  0
  3 10  1  0  0  0
 10 11  2  0  0  0
 11 12  1  0  0  0
 12 13  1  0  0  0
 12 14  2  0  0  0
 14 15  1  0  0  0
 15 16  2  0  0  0
 16 17  1  0  0  0
 17 18  2  0  0  0
 17  1  1  0  0  0
  8  3  1  0  0  0
 16 10  1  0  0  0
 28 19  1  0  0  0
 28 23  1  0  0  0
 32 33  1  0  0  0
 32 34  1  0  0  0
M  CHG 1  32   1
M  END
> <minimizedAffinity>
-7.43375

> <CNNscore>
0.2038380206

> <CNNaffinity>
5.8693132401

> <CNN_VS>
1.1963891983

> <CNNaffinity_variance>
0.0795201883

$$$$
