


 33 37  0  0  0  0  0  0  0  0999 V2000
    5.9948    0.6455   20.0977 C   0  0  0  0  0  0  0  0  0  0  0  0
    7.3236    0.0042   20.3677 C   0  0  0  0  0  0  0  0  0  0  0  0
    7.9633    0.1437   21.7172 C   0  0  0  0  0  0  0  0  0  0  0  0
    7.2743    0.9247   22.7967 C   0  0  0  0  0  0  0  0  0  0  0  0
    5.9455    1.5660   22.5267 C   0  0  0  0  0  0  0  0  0  0  0  0
    5.3058    1.4265   21.1771 C   0  0  0  0  0  0  0  0  0  0  0  0
    5.2564    2.3470   23.6062 C   0  0  0  0  0  0  0  0  0  0  0  0
    5.8962    2.4866   24.9557 C   0  0  0  0  0  0  0  0  0  0  0  0
    7.2250    1.8452   25.2257 C   0  0  0  0  0  0  0  0  0  0  0  0
    7.9141    1.0642   24.1462 O   0  0  0  0  0  0  0  0  0  0  0  0
    4.4524    3.1540   24.5820 N   0  0  0  0  0  0  0  0  0  0  0  0
    3.1974    3.5998   23.8919 C   0  0  0  0  0  0  0  0  0  0  0  0
    2.1057    4.4310   24.4977 O   0  0  0  0  0  0  0  0  0  0  0  0
    3.2258    3.0683   22.4894 N   0  0  0  0  0  0  0  0  0  0  0  0
    4.4984    2.2941   22.3129 C   0  0  0  0  0  0  0  0  0  0  0  0
    4.5965    1.8284   21.1950 O   0  0  0  0  0  0  0  0  0  0  0  0
    4.7041    3.3556   25.5122 H   0  0  0  0  0  0  0  0  0  0  0  0
    2.1676    3.2748   21.4467 C   0  0  0  0  0  0  0  0  0  0  0  0
    2.4379    4.1645   20.2696 C   0  0  0  0  0  0  0  0  0  0  0  0
    1.3797    4.3710   19.2269 N   0  0  0  0  0  0  0  0  0  0  0  0
    0.0510    3.6878   19.3611 C   0  0  0  0  0  0  0  0  0  0  0  0
   -0.2194    2.7981   20.5382 C   0  0  0  0  0  0  0  0  0  0  0  0
   -1.5480    2.1150   20.6724 C   0  0  0  0  0  0  0  0  0  0  0  0
   -1.8183    1.2253   21.8495 C   0  0  0  0  0  0  0  0  0  0  0  0
   -0.7600    1.0188   22.8923 C   0  0  0  0  0  0  0  0  0  0  0  0
    0.5686    1.7019   22.7580 C   0  0  0  0  0  0  0  0  0  0  0  0
    0.8389    2.5916   21.5809 C   0  0  0  0  0  0  0  0  0  0  0  0
    4.7153    0.3664   17.3986 N   0  0  0  0  0  0  0  0  0  0  0  0
    5.3550    0.5060   18.7481 S   0  0  0  0  0  0  0  0  0  0  0  0
    6.7118    0.4408   18.1117 O   0  0  0  0  0  0  0  0  0  0  0  0
    3.9983    0.5711   19.3845 O   0  0  0  0  0  0  0  0  0  0  0  0
    5.2968    0.2806   16.5650 H   0  0  0  0  0  0  0  0  0  0  0  0
    3.6988    0.3573   17.3145 H   0  0  0  0  0  0  0  0  0  0  0  0
 28 29  1  0  0  0
 29 30  2  0  0  0
 29 31  2  0  0  0
 29  1  1  0  0  0
  1  2  2  0  0  0
  2  3  1  0  0  0
  3  4  2  0  0  0
  4  5  1  0  0  0
  5  6  2  0  0  0
  5  7  1  0  0  0
  7  8  1  0  0  0
  8  9  1  0  0  0
  9 10  1  0  0  0
  7 11  1  0  0  0
 11 12  1  0  0  0
 12 13  2  0  0  0
 12 14  1  0  0  0
 14 18  1  0  0  0
 18 19  2  0  0  0
 19 20  1  0  0  0
 20 21  2  0  0  0
 21 22  1  0  0  0
 22 23  2  0  0  0
 23 24  1  0  0  0
 24 25  2  0  0  0
 25 26  1  0  0  0
 26 27  2  0  0  0
 14 15  1  0  0  0
 15 16  2  0  0  0
  6  1  1  0  0  0
 15  7  1  0  0  0
 10  4  1  0  0  0
 27 18  1  0  0  0
 27 22  1  0  0  0
 28 32  1  0  0  0
 28 33  1  0  0  0
 11 17  1  0  0  0
M  END
> <minimizedAffinity>
-6.94670

> <CNNscore>
0.6351414919

> <CNNaffinity>
6.0612139702

> <CNN_VS>
3.8497285843

> <CNNaffinity_variance>
0.0408964567

$$$$



 33 37  0  0  0  0  0  0  0  0999 V2000
   11.0625   -3.2682   26.3146 C   0  0  0  0  0  0  0  0  0  0  0  0
   12.5573   -3.1526   26.3627 C   0  0  0  0  0  0  0  0  0  0  0  0
   13.2994   -2.5381   25.2131 C   0  0  0  0  0  0  0  0  0  0  0  0
   12.5467   -2.0391   24.0154 C   0  0  0  0  0  0  0  0  0  0  0  0
   11.0520   -2.1546   23.9673 C   0  0  0  0  0  0  0  0  0  0  0  0
   10.3099   -2.7692   25.1169 C   0  0  0  0  0  0  0  0  0  0  0  0
   10.2993   -1.6556   22.7696 C   0  0  0  0  0  0  0  0  0  0  0  0
   11.0414   -1.0411   21.6200 C   0  0  0  0  0  0  0  0  0  0  0  0
   12.5362   -0.9255   21.6681 C   0  0  0  0  0  0  0  0  0  0  0  0
   13.2888   -1.4245   22.8658 O   0  0  0  0  0  0  0  0  0  0  0  0
    9.4158   -1.2034   21.6449 N   0  0  0  0  0  0  0  0  0  0  0  0
    7.9960   -1.5120   22.0179 C   0  0  0  0  0  0  0  0  0  0  0  0
    6.7832   -1.2276   21.1824 O   0  0  0  0  0  0  0  0  0  0  0  0
    8.0021   -2.1550   23.3732 N   0  0  0  0  0  0  0  0  0  0  0  0
    9.4256   -2.2437   23.8377 C   0  0  0  0  0  0  0  0  0  0  0  0
    9.5150   -2.7567   24.9355 O   0  0  0  0  0  0  0  0  0  0  0  0
    9.7151   -0.7787   20.8087 H   0  0  0  0  0  0  0  0  0  0  0  0
    6.7964   -2.6264   24.1308 C   0  0  0  0  0  0  0  0  0  0  0  0
    5.9190   -1.6350   24.8361 C   0  0  0  0  0  0  0  0  0  0  0  0
    4.7133   -2.1064   25.5938 N   0  0  0  0  0  0  0  0  0  0  0  0
    4.3850   -3.5691   25.6461 C   0  0  0  0  0  0  0  0  0  0  0  0
    5.2624   -4.5605   24.9409 C   0  0  0  0  0  0  0  0  0  0  0  0
    4.9342   -6.0232   24.9933 C   0  0  0  0  0  0  0  0  0  0  0  0
    5.8117   -7.0144   24.2880 C   0  0  0  0  0  0  0  0  0  0  0  0
    7.0174   -6.5430   23.5303 C   0  0  0  0  0  0  0  0  0  0  0  0
    7.3456   -5.0804   23.4779 C   0  0  0  0  0  0  0  0  0  0  0  0
    6.4681   -4.0891   24.1832 C   0  0  0  0  0  0  0  0  0  0  0  0
    9.5783   -4.4974   28.6138 N   0  0  0  0  0  0  0  0  0  0  0  0
   10.3204   -3.8828   27.4642 S   0  0  0  0  0  0  0  0  0  0  0  0
   11.3153   -5.0046   27.5067 O   0  0  0  0  0  0  0  0  0  0  0  0
    9.3255   -2.7610   27.4217 O   0  0  0  0  0  0  0  0  0  0  0  0
    9.9119   -5.3669   29.0297 H   0  0  0  0  0  0  0  0  0  0  0  0
    8.7401   -4.0457   28.9796 H   0  0  0  0  0  0  0  0  0  0  0  0
 28 29  1  0  0  0
 29 30  2  0  0  0
 29 31  2  0  0  0
 29  1  1  0  0  0
  1  2  2  0  0  0
  2  3  1  0  0  0
  3  4  2  0  0  0
  4  5  1  0  0  0
  5  6  2  0  0  0
  5  7  1  0  0  0
  7  8  1  0  0  0
  8  9  1  0  0  0
  9 10  1  0  0  0
  7 11  1  0  0  0
 11 12  1  0  0  0
 12 13  2  0  0  0
 12 14  1  0  0  0
 14 18  1  0  0  0
 18 19  2  0  0  0
 19 20  1  0  0  0
 20 21  2  0  0  0
 21 22  1  0  0  0
 22 23  2  0  0  0
 23 24  1  0  0  0
 24 25  2  0  0  0
 25 26  1  0  0  0
 26 27  2  0  0  0
 14 15  1  0  0  0
 15 16  2  0  0  0
  6  1  1  0  0  0
 15  7  1  0  0  0
 10  4  1  0  0  0
 27 18  1  0  0  0
 27 22  1  0  0  0
 28 32  1  0  0  0
 28 33  1  0  0  0
 11 17  1  0  0  0
M  END
> <minimizedAffinity>
-7.18727

> <CNNscore>
0.6182608604

> <CNNaffinity>
6.1977710724

> <CNN_VS>
3.8318393230

> <CNNaffinity_variance>
0.1966173649

$$$$



 33 37  0  0  0  0  0  0  0  0999 V2000
    5.2109    0.6260   19.5745 C   0  0  0  0  0  0  0  0  0  0  0  0
    4.2515    1.3854   18.7069 C   0  0  0  0  0  0  0  0  0  0  0  0
    3.0308    2.0143   19.3106 C   0  0  0  0  0  0  0  0  0  0  0  0
    2.7695    1.8837   20.7818 C   0  0  0  0  0  0  0  0  0  0  0  0
    3.7289    1.1243   21.6494 C   0  0  0  0  0  0  0  0  0  0  0  0
    4.9497    0.4955   21.0458 C   0  0  0  0  0  0  0  0  0  0  0  0
    3.4677    0.9937   23.1208 C   0  0  0  0  0  0  0  0  0  0  0  0
    2.2470    1.6225   23.7244 C   0  0  0  0  0  0  0  0  0  0  0  0
    1.2875    2.3820   22.8568 C   0  0  0  0  0  0  0  0  0  0  0  0
    1.5488    2.5125   21.3855 O   0  0  0  0  0  0  0  0  0  0  0  0
    3.3394    0.7800   24.5999 N   0  0  0  0  0  0  0  0  0  0  0  0
    4.5163   -0.0311   25.0549 C   0  0  0  0  0  0  0  0  0  0  0  0
    4.7896   -0.4764   26.4610 O   0  0  0  0  0  0  0  0  0  0  0  0
    5.3720   -0.3188   23.8569 N   0  0  0  0  0  0  0  0  0  0  0  0
    4.7239    0.3146   22.6616 C   0  0  0  0  0  0  0  0  0  0  0  0
    5.3610    0.1250   21.6445 O   0  0  0  0  0  0  0  0  0  0  0  0
    2.6107    1.1136   25.1717 H   0  0  0  0  0  0  0  0  0  0  0  0
    6.6511   -1.1022   23.8546 C   0  0  0  0  0  0  0  0  0  0  0  0
    7.9590   -0.4021   23.6332 C   0  0  0  0  0  0  0  0  0  0  0  0
    9.2381   -1.1855   23.6309 N   0  0  0  0  0  0  0  0  0  0  0  0
    9.2093   -2.6691   23.8502 C   0  0  0  0  0  0  0  0  0  0  0  0
    7.9014   -3.3693   24.0717 C   0  0  0  0  0  0  0  0  0  0  0  0
    7.8726   -4.8529   24.2909 C   0  0  0  0  0  0  0  0  0  0  0  0
    6.5646   -5.5530   24.5124 C   0  0  0  0  0  0  0  0  0  0  0  0
    5.2854   -4.7696   24.5146 C   0  0  0  0  0  0  0  0  0  0  0  0
    5.3142   -3.2860   24.2954 C   0  0  0  0  0  0  0  0  0  0  0  0
    6.6223   -2.5859   24.0739 C   0  0  0  0  0  0  0  0  0  0  0  0
    7.6524   -0.6316   18.3672 N   0  0  0  0  0  0  0  0  0  0  0  0
    6.4317   -0.0028   18.9708 S   0  0  0  0  0  0  0  0  0  0  0  0
    5.5610   -0.8324   18.0743 O   0  0  0  0  0  0  0  0  0  0  0  0
    7.3023    0.8268   19.8673 O   0  0  0  0  0  0  0  0  0  0  0  0
    7.5547   -1.3340   17.6340 H   0  0  0  0  0  0  0  0  0  0  0  0
    8.5802   -0.3569   18.6899 H   0  0  0  0  0  0  0  0  0  0  0  0
 28 29  1  0  0  0
 29 30  2  0  0  0
 29 31  2  0  0  0
 29  1  1  0  0  0
  1  2  2  0  0  0
  2  3  1  0  0  0
  3  4  2  0  0  0
  4  5  1  0  0  0
  5  6  2  0  0  0
  5  7  1  0  0  0
  7  8  1  0  0  0
  8  9  1  0  0  0
  9 10  1  0  0  0
  7 11  1  0  0  0
 11 12  1  0  0  0
 12 13  2  0  0  0
 12 14  1  0  0  0
 14 18  1  0  0  0
 18 19  2  0  0  0
 19 20  1  0  0  0
 20 21  2  0  0  0
 21 22  1  0  0  0
 22 23  2  0  0  0
 23 24  1  0  0  0
 24 25  2  0  0  0
 25 26  1  0  0  0
 26 27  2  0  0  0
 14 15  1  0  0  0
 15 16  2  0  0  0
  6  1  1  0  0  0
 15  7  1  0  0  0
 10  4  1  0  0  0
 27 18  1  0  0  0
 27 22  1  0  0  0
 28 32  1  0  0  0
 28 33  1  0  0  0
 11 17  1  0  0  0
M  END
> <minimizedAffinity>
-7.21954

> <CNNscore>
0.5641091466

> <CNNaffinity>
5.9006791115

> <CNN_VS>
3.3286271095

> <CNNaffinity_variance>
0.1789779663

$$$$



 33 37  0  0  0  0  0  0  0  0999 V2000
    4.6061    1.0692   19.3295 C   0  0  0  0  0  0  0  0  0  0  0  0
    3.5074    1.8581   18.6812 C   0  0  0  0  0  0  0  0  0  0  0  0
    2.8695    2.9996   19.4162 C   0  0  0  0  0  0  0  0  0  0  0  0
    3.3303    3.3520   20.7994 C   0  0  0  0  0  0  0  0  0  0  0  0
    4.4290    2.5631   21.4477 C   0  0  0  0  0  0  0  0  0  0  0  0
    5.0670    1.4216   20.7127 C   0  0  0  0  0  0  0  0  0  0  0  0
    4.8899    2.9155   22.8310 C   0  0  0  0  0  0  0  0  0  0  0  0
    4.2520    4.0570   23.5660 C   0  0  0  0  0  0  0  0  0  0  0  0
    3.1532    4.8460   22.9176 C   0  0  0  0  0  0  0  0  0  0  0  0
    2.6924    4.4935   21.5344 O   0  0  0  0  0  0  0  0  0  0  0  0
    5.4530    3.1496   24.2014 N   0  0  0  0  0  0  0  0  0  0  0  0
    6.5296    2.1327   24.4401 C   0  0  0  0  0  0  0  0  0  0  0  0
    7.3584    2.0014   25.6834 O   0  0  0  0  0  0  0  0  0  0  0  0
    6.6318    1.2702   23.2171 N   0  0  0  0  0  0  0  0  0  0  0  0
    5.6185    1.7540   22.2227 C   0  0  0  0  0  0  0  0  0  0  0  0
    5.6390    1.1016   21.1979 O   0  0  0  0  0  0  0  0  0  0  0  0
    5.1663    3.8480   24.8333 H   0  0  0  0  0  0  0  0  0  0  0  0
    7.5808    0.1249   23.0227 C   0  0  0  0  0  0  0  0  0  0  0  0
    8.8833    0.3427   22.3114 C   0  0  0  0  0  0  0  0  0  0  0  0
    9.8323   -0.8026   22.1170 N   0  0  0  0  0  0  0  0  0  0  0  0
    9.4788   -2.1656   22.6340 C   0  0  0  0  0  0  0  0  0  0  0  0
    8.1763   -2.3833   23.3454 C   0  0  0  0  0  0  0  0  0  0  0  0
    7.8228   -3.7463   23.8624 C   0  0  0  0  0  0  0  0  0  0  0  0
    6.5202   -3.9640   24.5737 C   0  0  0  0  0  0  0  0  0  0  0  0
    5.5712   -2.8187   24.7681 C   0  0  0  0  0  0  0  0  0  0  0  0
    5.9247   -1.4558   24.2511 C   0  0  0  0  0  0  0  0  0  0  0  0
    7.2273   -1.2381   23.5397 C   0  0  0  0  0  0  0  0  0  0  0  0
    5.8820   -1.2137   17.8596 N   0  0  0  0  0  0  0  0  0  0  0  0
    5.2441   -0.0723   18.5945 S   0  0  0  0  0  0  0  0  0  0  0  0
    5.5185    0.8315   17.4292 O   0  0  0  0  0  0  0  0  0  0  0  0
    4.9696   -0.9760   19.7598 O   0  0  0  0  0  0  0  0  0  0  0  0
    6.2605   -1.0696   16.9234 H   0  0  0  0  0  0  0  0  0  0  0  0
    5.9373   -2.1340   18.2959 H   0  0  0  0  0  0  0  0  0  0  0  0
 28 29  1  0  0  0
 29 30  2  0  0  0
 29 31  2  0  0  0
 29  1  1  0  0  0
  1  2  2  0  0  0
  2  3  1  0  0  0
  3  4  2  0  0  0
  4  5  1  0  0  0
  5  6  2  0  0  0
  5  7  1  0  0  0
  7  8  1  0  0  0
  8  9  1  0  0  0
  9 10  1  0  0  0
  7 11  1  0  0  0
 11 12  1  0  0  0
 12 13  2  0  0  0
 12 14  1  0  0  0
 14 18  1  0  0  0
 18 19  2  0  0  0
 19 20  1  0  0  0
 20 21  2  0  0  0
 21 22  1  0  0  0
 22 23  2  0  0  0
 23 24  1  0  0  0
 24 25  2  0  0  0
 25 26  1  0  0  0
 26 27  2  0  0  0
 14 15  1  0  0  0
 15 16  2  0  0  0
  6  1  1  0  0  0
 15  7  1  0  0  0
 10  4  1  0  0  0
 27 18  1  0  0  0
 27 22  1  0  0  0
 28 32  1  0  0  0
 28 33  1  0  0  0
 11 17  1  0  0  0
M  END
> <minimizedAffinity>
-7.19829

> <CNNscore>
0.4998782575

> <CNNaffinity>
6.0814247131

> <CNN_VS>
3.0399720669

> <CNNaffinity_variance>
0.0680219680

$$$$



 33 37  0  0  0  0  0  0  0  0999 V2000
    6.1868    0.3979   20.0879 C   0  0  0  0  0  0  0  0  0  0  0  0
    7.5268   -0.2418   20.3005 C   0  0  0  0  0  0  0  0  0  0  0  0
    8.1792   -0.1853   21.6500 C   0  0  0  0  0  0  0  0  0  0  0  0
    7.4916    0.5108   22.7869 C   0  0  0  0  0  0  0  0  0  0  0  0
    6.1516    1.1504   22.5744 C   0  0  0  0  0  0  0  0  0  0  0  0
    5.4992    1.0939   21.2249 C   0  0  0  0  0  0  0  0  0  0  0  0
    5.4639    1.8465   23.7113 C   0  0  0  0  0  0  0  0  0  0  0  0
    6.1163    1.9030   25.0608 C   0  0  0  0  0  0  0  0  0  0  0  0
    7.4564    1.2633   25.2734 C   0  0  0  0  0  0  0  0  0  0  0  0
    8.1440    0.5672   24.1365 O   0  0  0  0  0  0  0  0  0  0  0  0
    4.6598    2.5740   24.7478 N   0  0  0  0  0  0  0  0  0  0  0  0
    3.3917    3.0480   24.1020 C   0  0  0  0  0  0  0  0  0  0  0  0
    2.2956    3.8209   24.7738 O   0  0  0  0  0  0  0  0  0  0  0  0
    3.4120    2.6135   22.6664 N   0  0  0  0  0  0  0  0  0  0  0  0
    4.6927    1.8710   22.4250 C   0  0  0  0  0  0  0  0  0  0  0  0
    4.7848    1.4838   21.2770 O   0  0  0  0  0  0  0  0  0  0  0  0
    4.9189    2.7154   25.6870 H   0  0  0  0  0  0  0  0  0  0  0  0
    2.3398    2.8756   21.6506 C   0  0  0  0  0  0  0  0  0  0  0  0
    1.5372    1.7361   21.0964 C   0  0  0  0  0  0  0  0  0  0  0  0
    0.4650    1.9982   20.0806 N   0  0  0  0  0  0  0  0  0  0  0  0
    0.1955    3.3998   19.6191 C   0  0  0  0  0  0  0  0  0  0  0  0
    0.9982    4.5393   20.1734 C   0  0  0  0  0  0  0  0  0  0  0  0
    0.7287    5.9409   19.7119 C   0  0  0  0  0  0  0  0  0  0  0  0
    1.5315    7.0804   20.2663 C   0  0  0  0  0  0  0  0  0  0  0  0
    2.6036    6.8183   21.2821 C   0  0  0  0  0  0  0  0  0  0  0  0
    2.8731    5.4168   21.7435 C   0  0  0  0  0  0  0  0  0  0  0  0
    2.0704    4.2772   21.1892 C   0  0  0  0  0  0  0  0  0  0  0  0
    4.8819    0.2849   17.3889 N   0  0  0  0  0  0  0  0  0  0  0  0
    5.5344    0.3414   18.7384 S   0  0  0  0  0  0  0  0  0  0  0  0
    4.3647    1.1146   19.2715 O   0  0  0  0  0  0  0  0  0  0  0  0
    6.7040   -0.4318   18.2053 O   0  0  0  0  0  0  0  0  0  0  0  0
    3.9713    0.7211   17.2440 H   0  0  0  0  0  0  0  0  0  0  0  0
    5.3489   -0.1896   16.6161 H   0  0  0  0  0  0  0  0  0  0  0  0
 28 29  1  0  0  0
 29 30  2  0  0  0
 29 31  2  0  0  0
 29  1  1  0  0  0
  1  2  2  0  0  0
  2  3  1  0  0  0
  3  4  2  0  0  0
  4  5  1  0  0  0
  5  6  2  0  0  0
  5  7  1  0  0  0
  7  8  1  0  0  0
  8  9  1  0  0  0
  9 10  1  0  0  0
  7 11  1  0  0  0
 11 12  1  0  0  0
 12 13  2  0  0  0
 12 14  1  0  0  0
 14 18  1  0  0  0
 18 19  2  0  0  0
 19 20  1  0  0  0
 20 21  2  0  0  0
 21 22  1  0  0  0
 22 23  2  0  0  0
 23 24  1  0  0  0
 24 25  2  0  0  0
 25 26  1  0  0  0
 26 27  2  0  0  0
 14 15  1  0  0  0
 15 16  2  0  0  0
  6  1  1  0  0  0
 15  7  1  0  0  0
 10  4  1  0  0  0
 27 18  1  0  0  0
 27 22  1  0  0  0
 28 32  1  0  0  0
 28 33  1  0  0  0
 11 17  1  0  0  0
M  END
> <minimizedAffinity>
-6.97318

> <CNNscore>
0.4995774329

> <CNNaffinity>
5.8731412888

> <CNN_VS>
2.9340889454

> <CNNaffinity_variance>
0.1453893632

$$$$



 33 37  0  0  0  0  0  0  0  0999 V2000
   11.0695   -2.7996   25.4873 C   0  0  0  0  0  0  0  0  0  0  0  0
   10.6724   -4.1260   26.0642 C   0  0  0  0  0  0  0  0  0  0  0  0
    9.3971   -4.7829   25.6261 C   0  0  0  0  0  0  0  0  0  0  0  0
    8.5189   -4.1135   24.6110 C   0  0  0  0  0  0  0  0  0  0  0  0
    8.9160   -2.7871   24.0340 C   0  0  0  0  0  0  0  0  0  0  0  0
   10.1913   -2.1301   24.4722 C   0  0  0  0  0  0  0  0  0  0  0  0
    8.0377   -2.1176   23.0188 C   0  0  0  0  0  0  0  0  0  0  0  0
    6.7624   -2.7745   22.5806 C   0  0  0  0  0  0  0  0  0  0  0  0
    6.3653   -4.1010   23.1577 C   0  0  0  0  0  0  0  0  0  0  0  0
    7.2436   -4.7704   24.1728 O   0  0  0  0  0  0  0  0  0  0  0  0
    7.2652   -1.3321   22.0009 N   0  0  0  0  0  0  0  0  0  0  0  0
    8.0271   -0.0728   21.7114 C   0  0  0  0  0  0  0  0  0  0  0  0
    7.6175    1.0046   20.7514 O   0  0  0  0  0  0  0  0  0  0  0  0
    9.2705   -0.0800   22.5505 N   0  0  0  0  0  0  0  0  0  0  0  0
    9.2770   -1.3437   23.3585 C   0  0  0  0  0  0  0  0  0  0  0  0
   10.2592   -1.4245   24.0691 O   0  0  0  0  0  0  0  0  0  0  0  0
    6.4086   -1.5966   21.5941 H   0  0  0  0  0  0  0  0  0  0  0  0
   10.3225    0.9889   22.5769 C   0  0  0  0  0  0  0  0  0  0  0  0
   11.7635    0.6281   22.3687 C   0  0  0  0  0  0  0  0  0  0  0  0
   12.8156    1.6970   22.3951 N   0  0  0  0  0  0  0  0  0  0  0  0
   12.4266    3.1266   22.6297 C   0  0  0  0  0  0  0  0  0  0  0  0
   10.9856    3.4873   22.8379 C   0  0  0  0  0  0  0  0  0  0  0  0
   10.5967    4.9169   23.0725 C   0  0  0  0  0  0  0  0  0  0  0  0
    9.1556    5.2775   23.2807 C   0  0  0  0  0  0  0  0  0  0  0  0
    8.1035    4.2086   23.2543 C   0  0  0  0  0  0  0  0  0  0  0  0
    8.4925    2.7791   23.0197 C   0  0  0  0  0  0  0  0  0  0  0  0
    9.9336    2.4184   22.8115 C   0  0  0  0  0  0  0  0  0  0  0  0
   13.6201   -1.4856   26.3636 N   0  0  0  0  0  0  0  0  0  0  0  0
   12.3448   -2.1426   25.9255 S   0  0  0  0  0  0  0  0  0  0  0  0
   13.0336   -3.4751   25.9186 O   0  0  0  0  0  0  0  0  0  0  0  0
   11.6560   -0.8101   25.9324 O   0  0  0  0  0  0  0  0  0  0  0  0
   14.4593   -2.0470   26.5085 H   0  0  0  0  0  0  0  0  0  0  0  0
   13.6481   -0.4776   26.5167 H   0  0  0  0  0  0  0  0  0  0  0  0
 28 29  1  0  0  0
 29 30  2  0  0  0
 29 31  2  0  0  0
 29  1  1  0  0  0
  1  2  2  0  0  0
  2  3  1  0  0  0
  3  4  2  0  0  0
  4  5  1  0  0  0
  5  6  2  0  0  0
  5  7  1  0  0  0
  7  8  1  0  0  0
  8  9  1  0  0  0
  9 10  1  0  0  0
  7 11  1  0  0  0
 11 12  1  0  0  0
 12 13  2  0  0  0
 12 14  1  0  0  0
 14 18  1  0  0  0
 18 19  2  0  0  0
 19 20  1  0  0  0
 20 21  2  0  0  0
 21 22  1  0  0  0
 22 23  2  0  0  0
 23 24  1  0  0  0
 24 25  2  0  0  0
 25 26  1  0  0  0
 26 27  2  0  0  0
 14 15  1  0  0  0
 15 16  2  0  0  0
  6  1  1  0  0  0
 15  7  1  0  0  0
 10  4  1  0  0  0
 27 18  1  0  0  0
 27 22  1  0  0  0
 28 32  1  0  0  0
 28 33  1  0  0  0
 11 17  1  0  0  0
M  END
> <minimizedAffinity>
-7.53480

> <CNNscore>
0.4761685431

> <CNNaffinity>
6.1539807320

> <CNN_VS>
2.9303319454

> <CNNaffinity_variance>
0.1555014253

$$$$



 33 37  0  0  0  0  0  0  0  0999 V2000
    5.0626    0.7607   19.4658 C   0  0  0  0  0  0  0  0  0  0  0  0
    4.1304    1.5525   18.5975 C   0  0  0  0  0  0  0  0  0  0  0  0
    2.9111    2.1913   19.1935 C   0  0  0  0  0  0  0  0  0  0  0  0
    2.6240    2.0383   20.6578 C   0  0  0  0  0  0  0  0  0  0  0  0
    3.5562    1.2465   21.5261 C   0  0  0  0  0  0  0  0  0  0  0  0
    4.7755    0.6076   20.9301 C   0  0  0  0  0  0  0  0  0  0  0  0
    3.2691    1.0934   22.9904 C   0  0  0  0  0  0  0  0  0  0  0  0
    2.0498    1.7323   23.5864 C   0  0  0  0  0  0  0  0  0  0  0  0
    1.1175    2.5241   22.7180 C   0  0  0  0  0  0  0  0  0  0  0  0
    1.4047    2.6772   21.2538 O   0  0  0  0  0  0  0  0  0  0  0  0
    3.1134    0.8549   24.4631 N   0  0  0  0  0  0  0  0  0  0  0  0
    4.2687    0.0151   24.9214 C   0  0  0  0  0  0  0  0  0  0  0  0
    4.5116   -0.4606   26.3230 O   0  0  0  0  0  0  0  0  0  0  0  0
    5.1385   -0.2654   23.7318 N   0  0  0  0  0  0  0  0  0  0  0  0
    4.5206    0.4011   22.5385 C   0  0  0  0  0  0  0  0  0  0  0  0
    5.1707    0.2192   21.5283 O   0  0  0  0  0  0  0  0  0  0  0  0
    2.3814    1.1906   25.0295 H   0  0  0  0  0  0  0  0  0  0  0  0
    6.4038   -1.0708   23.7351 C   0  0  0  0  0  0  0  0  0  0  0  0
    6.3402   -2.5671   23.8195 C   0  0  0  0  0  0  0  0  0  0  0  0
    7.6055   -3.3726   23.8228 N   0  0  0  0  0  0  0  0  0  0  0  0
    8.9346   -2.6818   23.7418 C   0  0  0  0  0  0  0  0  0  0  0  0
    8.9982   -1.1855   23.6575 C   0  0  0  0  0  0  0  0  0  0  0  0
   10.3272   -0.4947   23.5765 C   0  0  0  0  0  0  0  0  0  0  0  0
   10.3908    1.0016   23.4922 C   0  0  0  0  0  0  0  0  0  0  0  0
    9.1254    1.8070   23.4888 C   0  0  0  0  0  0  0  0  0  0  0  0
    7.7965    1.1163   23.5698 C   0  0  0  0  0  0  0  0  0  0  0  0
    7.7329   -0.3801   23.6542 C   0  0  0  0  0  0  0  0  0  0  0  0
    7.5012   -0.5170   18.2739 N   0  0  0  0  0  0  0  0  0  0  0  0
    6.2819    0.1218   18.8698 S   0  0  0  0  0  0  0  0  0  0  0  0
    7.1485    0.8764   19.8340 O   0  0  0  0  0  0  0  0  0  0  0  0
    5.4153   -0.6328   17.9057 O   0  0  0  0  0  0  0  0  0  0  0  0
    8.4261   -0.2898   18.6390 H   0  0  0  0  0  0  0  0  0  0  0  0
    7.4054   -1.1786   17.5034 H   0  0  0  0  0  0  0  0  0  0  0  0
 28 29  1  0  0  0
 29 30  2  0  0  0
 29 31  2  0  0  0
 29  1  1  0  0  0
  1  2  2  0  0  0
  2  3  1  0  0  0
  3  4  2  0  0  0
  4  5  1  0  0  0
  5  6  2  0  0  0
  5  7  1  0  0  0
  7  8  1  0  0  0
  8  9  1  0  0  0
  9 10  1  0  0  0
  7 11  1  0  0  0
 11 12  1  0  0  0
 12 13  2  0  0  0
 12 14  1  0  0  0
 14 18  1  0  0  0
 18 19  2  0  0  0
 19 20  1  0  0  0
 20 21  2  0  0  0
 21 22  1  0  0  0
 22 23  2  0  0  0
 23 24  1  0  0  0
 24 25  2  0  0  0
 25 26  1  0  0  0
 26 27  2  0  0  0
 14 15  1  0  0  0
 15 16  2  0  0  0
  6  1  1  0  0  0
 15  7  1  0  0  0
 10  4  1  0  0  0
 27 18  1  0  0  0
 27 22  1  0  0  0
 28 32  1  0  0  0
 28 33  1  0  0  0
 11 17  1  0  0  0
M  END
> <minimizedAffinity>
-7.69079

> <CNNscore>
0.4592844546

> <CNNaffinity>
5.8587474823

> <CNN_VS>
2.6908316612

> <CNNaffinity_variance>
0.2520214915

$$$$



 33 37  0  0  0  0  0  0  0  0999 V2000
   10.8753   -2.7374   25.2361 C   0  0  0  0  0  0  0  0  0  0  0  0
   11.9412   -1.6874   25.3417 C   0  0  0  0  0  0  0  0  0  0  0  0
   11.8208   -0.4148   24.5568 C   0  0  0  0  0  0  0  0  0  0  0  0
   10.6343   -0.1922   23.6664 C   0  0  0  0  0  0  0  0  0  0  0  0
    9.5684   -1.2422   23.5609 C   0  0  0  0  0  0  0  0  0  0  0  0
    9.6888   -2.5148   24.3458 C   0  0  0  0  0  0  0  0  0  0  0  0
    8.3819   -1.0196   22.6705 C   0  0  0  0  0  0  0  0  0  0  0  0
    8.2614    0.2529   21.8857 C   0  0  0  0  0  0  0  0  0  0  0  0
    9.3275    1.3030   21.9912 C   0  0  0  0  0  0  0  0  0  0  0  0
   10.5139    1.0804   22.8816 O   0  0  0  0  0  0  0  0  0  0  0  0
    7.1448   -0.9384   21.8260 N   0  0  0  0  0  0  0  0  0  0  0  0
    6.3642   -2.2038   22.0246 C   0  0  0  0  0  0  0  0  0  0  0  0
    5.0582   -2.5459   21.3707 O   0  0  0  0  0  0  0  0  0  0  0  0
    7.1187   -3.0671   22.9918 N   0  0  0  0  0  0  0  0  0  0  0  0
    8.3657   -2.3352   23.3910 C   0  0  0  0  0  0  0  0  0  0  0  0
    9.0356   -2.9734   24.1785 O   0  0  0  0  0  0  0  0  0  0  0  0
    6.8901   -0.1866   21.2437 H   0  0  0  0  0  0  0  0  0  0  0  0
    6.6998   -4.4239   23.4749 C   0  0  0  0  0  0  0  0  0  0  0  0
    7.2003   -5.6552   22.7795 C   0  0  0  0  0  0  0  0  0  0  0  0
    6.7814   -7.0120   23.2626 N   0  0  0  0  0  0  0  0  0  0  0  0
    5.8620   -7.1377   24.4412 C   0  0  0  0  0  0  0  0  0  0  0  0
    5.3616   -5.9065   25.1366 C   0  0  0  0  0  0  0  0  0  0  0  0
    4.4422   -6.0321   26.3152 C   0  0  0  0  0  0  0  0  0  0  0  0
    3.9418   -4.8008   27.0105 C   0  0  0  0  0  0  0  0  0  0  0  0
    4.3607   -3.4439   26.5274 C   0  0  0  0  0  0  0  0  0  0  0  0
    5.2800   -3.3183   25.3489 C   0  0  0  0  0  0  0  0  0  0  0  0
    5.7805   -4.5496   24.6535 C   0  0  0  0  0  0  0  0  0  0  0  0
   11.1162   -5.2826   26.8058 N   0  0  0  0  0  0  0  0  0  0  0  0
   10.9957   -4.0100   26.0210 S   0  0  0  0  0  0  0  0  0  0  0  0
   12.1296   -3.4190   26.8052 O   0  0  0  0  0  0  0  0  0  0  0  0
    9.8618   -4.6010   25.2367 O   0  0  0  0  0  0  0  0  0  0  0  0
   11.8249   -5.3673   27.5345 H   0  0  0  0  0  0  0  0  0  0  0  0
   10.4894   -6.0633   26.6109 H   0  0  0  0  0  0  0  0  0  0  0  0
 28 29  1  0  0  0
 29 30  2  0  0  0
 29 31  2  0  0  0
 29  1  1  0  0  0
  1  2  2  0  0  0
  2  3  1  0  0  0
  3  4  2  0  0  0
  4  5  1  0  0  0
  5  6  2  0  0  0
  5  7  1  0  0  0
  7  8  1  0  0  0
  8  9  1  0  0  0
  9 10  1  0  0  0
  7 11  1  0  0  0
 11 12  1  0  0  0
 12 13  2  0  0  0
 12 14  1  0  0  0
 14 18  1  0  0  0
 18 19  2  0  0  0
 19 20  1  0  0  0
 20 21  2  0  0  0
 21 22  1  0  0  0
 22 23  2  0  0  0
 23 24  1  0  0  0
 24 25  2  0  0  0
 25 26  1  0  0  0
 26 27  2  0  0  0
 14 15  1  0  0  0
 15 16  2  0  0  0
  6  1  1  0  0  0
 15  7  1  0  0  0
 10  4  1  0  0  0
 27 18  1  0  0  0
 27 22  1  0  0  0
 28 32  1  0  0  0
 28 33  1  0  0  0
 11 17  1  0  0  0
M  END
> <minimizedAffinity>
-8.36638

> <CNNscore>
0.4507409632

> <CNNaffinity>
5.9692049026

> <CNN_VS>
2.6905651093

> <CNNaffinity_variance>
0.2735486329

$$$$



 33 37  0  0  0  0  0  0  0  0999 V2000
    4.7662    1.0179   19.3888 C   0  0  0  0  0  0  0  0  0  0  0  0
    3.6811    1.7727   18.6796 C   0  0  0  0  0  0  0  0  0  0  0  0
    2.9652    2.8904   19.3783 C   0  0  0  0  0  0  0  0  0  0  0  0
    3.3344    3.2533   20.7862 C   0  0  0  0  0  0  0  0  0  0  0  0
    4.4194    2.4985   21.4953 C   0  0  0  0  0  0  0  0  0  0  0  0
    5.1353    1.3808   20.7966 C   0  0  0  0  0  0  0  0  0  0  0  0
    4.7886    2.8614   22.9032 C   0  0  0  0  0  0  0  0  0  0  0  0
    4.0727    3.9791   23.6019 C   0  0  0  0  0  0  0  0  0  0  0  0
    2.9876    4.7339   22.8927 C   0  0  0  0  0  0  0  0  0  0  0  0
    2.6185    4.3710   21.4848 O   0  0  0  0  0  0  0  0  0  0  0  0
    5.2644    3.1093   24.3039 N   0  0  0  0  0  0  0  0  0  0  0  0
    6.3583    2.1273   24.6025 C   0  0  0  0  0  0  0  0  0  0  0  0
    7.1184    2.0191   25.8911 O   0  0  0  0  0  0  0  0  0  0  0  0
    6.5585    1.2724   23.3863 N   0  0  0  0  0  0  0  0  0  0  0  0
    5.5884    1.7261   22.3360 C   0  0  0  0  0  0  0  0  0  0  0  0
    5.6888    1.0780   21.3133 O   0  0  0  0  0  0  0  0  0  0  0  0
    4.9194    3.7960   24.9192 H   0  0  0  0  0  0  0  0  0  0  0  0
    7.5540    0.1593   23.2451 C   0  0  0  0  0  0  0  0  0  0  0  0
    7.0832   -1.2629   23.1707 C   0  0  0  0  0  0  0  0  0  0  0  0
    8.0787   -2.3760   23.0296 N   0  0  0  0  0  0  0  0  0  0  0  0
    9.5450   -2.0669   22.9628 C   0  0  0  0  0  0  0  0  0  0  0  0
   10.0158   -0.6446   23.0372 C   0  0  0  0  0  0  0  0  0  0  0  0
   11.4821   -0.3355   22.9704 C   0  0  0  0  0  0  0  0  0  0  0  0
   11.9527    1.0868   23.0448 C   0  0  0  0  0  0  0  0  0  0  0  0
   10.9572    2.1999   23.1860 C   0  0  0  0  0  0  0  0  0  0  0  0
    9.4910    1.8908   23.2527 C   0  0  0  0  0  0  0  0  0  0  0  0
    9.0203    0.4685   23.1783 C   0  0  0  0  0  0  0  0  0  0  0  0
    6.1980   -1.2176   17.9914 N   0  0  0  0  0  0  0  0  0  0  0  0
    5.4821   -0.0999   18.6901 S   0  0  0  0  0  0  0  0  0  0  0  0
    5.0627   -1.0468   19.7751 O   0  0  0  0  0  0  0  0  0  0  0  0
    5.9015    0.8471   17.6050 O   0  0  0  0  0  0  0  0  0  0  0  0
    6.1944   -2.1552   18.3928 H   0  0  0  0  0  0  0  0  0  0  0  0
    6.6884   -1.0399   17.1148 H   0  0  0  0  0  0  0  0  0  0  0  0
 28 29  1  0  0  0
 29 30  2  0  0  0
 29 31  2  0  0  0
 29  1  1  0  0  0
  1  2  2  0  0  0
  2  3  1  0  0  0
  3  4  2  0  0  0
  4  5  1  0  0  0
  5  6  2  0  0  0
  5  7  1  0  0  0
  7  8  1  0  0  0
  8  9  1  0  0  0
  9 10  1  0  0  0
  7 11  1  0  0  0
 11 12  1  0  0  0
 12 13  2  0  0  0
 12 14  1  0  0  0
 14 18  1  0  0  0
 18 19  2  0  0  0
 19 20  1  0  0  0
 20 21  2  0  0  0
 21 22  1  0  0  0
 22 23  2  0  0  0
 23 24  1  0  0  0
 24 25  2  0  0  0
 25 26  1  0  0  0
 26 27  2  0  0  0
 14 15  1  0  0  0
 15 16  2  0  0  0
  6  1  1  0  0  0
 15  7  1  0  0  0
 10  4  1  0  0  0
 27 18  1  0  0  0
 27 22  1  0  0  0
 28 32  1  0  0  0
 28 33  1  0  0  0
 11 17  1  0  0  0
M  END
> <minimizedAffinity>
-7.90829

> <CNNscore>
0.4492762983

> <CNNaffinity>
5.9959745407

> <CNN_VS>
2.6938493252

> <CNNaffinity_variance>
0.0128987748

$$$$
