
     RDKit          2D

 30 34  0  0  0  0  0  0  0  0999 V2000
    4.5000    0.0000    0.0000 N   0  0  0  0  0  0  0  0  0  0  0  0
    3.0000    0.0000    0.0000 S   0  0  0  0  0  0  0  0  0  0  0  0
    3.0000   -1.5000    0.0000 O   0  0  0  0  0  0  0  0  0  0  0  0
    3.0000    1.5000    0.0000 O   0  0  0  0  0  0  0  0  0  0  0  0
    1.5000    0.0000    0.0000 C   0  0  0  0  0  0  0  0  0  0  0  0
    0.7500   -1.2990    0.0000 C   0  0  0  0  0  0  0  0  0  0  0  0
   -0.7500   -1.2990    0.0000 C   0  0  0  0  0  0  0  0  0  0  0  0
   -1.5000    0.0000    0.0000 C   0  0  0  0  0  0  0  0  0  0  0  0
   -0.7500    1.2990    0.0000 C   0  0  0  0  0  0  0  0  0  0  0  0
    0.7500    1.2990    0.0000 C   0  0  0  0  0  0  0  0  0  0  0  0
   -1.5000    2.5981    0.0000 C   0  0  0  0  0  0  0  0  0  0  0  0
   -3.0000    2.5981    0.0000 C   0  0  0  0  0  0  0  0  0  0  0  0
   -3.7500    1.2990    0.0000 C   0  0  0  0  0  0  0  0  0  0  0  0
   -3.0000   -0.0000    0.0000 O   0  0  0  0  0  0  0  0  0  0  0  0
   -2.1101    3.9684    0.0000 N   0  0  0  0  0  0  0  0  0  0  0  0
   -0.9954    4.9721    0.0000 C   0  0  0  0  0  0  0  0  0  0  0  0
   -1.1522    6.4639    0.0000 O   0  0  0  0  0  0  0  0  0  0  0  0
    0.3037    4.2221    0.0000 N   0  0  0  0  0  0  0  0  0  0  0  0
    1.6740    4.8322    0.0000 C   0  0  0  0  0  0  0  0  0  0  0  0
    2.8875    3.9505    0.0000 C   0  0  0  0  0  0  0  0  0  0  0  0
    4.2578    4.5606    0.0000 N   0  0  0  0  0  0  0  0  0  0  0  0
    4.4146    6.0524    0.0000 C   0  0  0  0  0  0  0  0  0  0  0  0
    3.2011    6.9341    0.0000 C   0  0  0  0  0  0  0  0  0  0  0  0
    3.3579    8.4259    0.0000 C   0  0  0  0  0  0  0  0  0  0  0  0
    2.1443    9.3075    0.0000 C   0  0  0  0  0  0  0  0  0  0  0  0
    0.7740    8.6974    0.0000 C   0  0  0  0  0  0  0  0  0  0  0  0
    0.6172    7.2057    0.0000 C   0  0  0  0  0  0  0  0  0  0  0  0
    1.8308    6.3240    0.0000 C   0  0  0  0  0  0  0  0  0  0  0  0
   -0.0082    2.7549    0.0000 C   0  0  0  0  0  0  0  0  0  0  0  0
    0.9991    2.0755    0.0000 O   0  0  0  0  0  0  0  0  0  0  0  0
  1  2  1  0
  2  3  2  0
  2  4  2  0
  2  5  1  0
  5  6  2  0
  6  7  1  0
  7  8  2  0
  8  9  1  0
  9 10  2  0
  9 11  1  0
 11 12  1  6
 12 13  1  0
 13 14  1  0
 11 15  1  0
 15 16  1  0
 16 17  2  0
 16 18  1  0
 18 19  1  0
 19 20  2  0
 20 21  1  0
 21 22  2  0
 22 23  1  0
 23 24  2  0
 24 25  1  0
 25 26  2  0
 26 27  1  0
 27 28  2  0
 18 29  1  0
 29 30  2  0
 10  5  1  0
 29 11  1  0
 14  8  1  0
 28 19  1  0
 28 23  1  0
M  END
$$$$
