


 27 30  0  0  0  0  0  0  0  0999 V2000
    7.4253   -0.8650   22.0212 C   0  0  0  0  0  0  0  0  0  0  0  0
    8.2807    0.1857   21.3773 O   0  0  0  0  0  0  0  0  0  0  0  0
    6.0926   -1.2143   21.4281 N   0  0  0  0  0  0  0  0  0  0  0  0
    5.5313   -1.9038   21.8507 H   0  0  0  0  0  0  0  0  0  0  0  0
    6.3948   -3.3583   26.4621 C   0  0  0  0  0  0  0  0  0  0  0  0
    7.3876   -2.8130   25.4786 N   0  0  0  0  0  0  0  0  0  0  0  0
    6.9101   -2.1116   24.2416 C   0  0  0  0  0  0  0  0  0  0  0  0
    7.9028   -1.5663   23.2582 C   0  0  0  0  0  0  0  0  0  0  0  0
    9.3730   -1.7224   23.5117 C   0  0  0  0  0  0  0  0  0  0  0  0
   10.3657   -1.1771   22.5282 C   0  0  0  0  0  0  0  0  0  0  0  0
   11.8358   -1.3332   22.7817 C   0  0  0  0  0  0  0  0  0  0  0  0
   12.8286   -0.7879   21.7983 Cl  0  0  0  0  0  0  0  0  0  0  0  0
   12.3133   -2.0345   24.0187 C   0  0  0  0  0  0  0  0  0  0  0  0
   11.3206   -2.5798   25.0022 C   0  0  0  0  0  0  0  0  0  0  0  0
    9.8505   -2.4238   24.7487 C   0  0  0  0  0  0  0  0  0  0  0  0
    8.8577   -2.9691   25.7321 C   0  0  0  0  0  0  0  0  0  0  0  0
    9.3352   -3.6704   26.9691 O   0  0  0  0  0  0  0  0  0  0  0  0
    5.6152   -0.5129   20.1911 C   0  0  0  0  0  0  0  0  0  0  0  0
    6.0669   -0.9835   18.8404 C   0  0  0  0  0  0  0  0  0  0  0  0
    5.5895   -0.2821   17.6035 N   0  0  0  0  0  0  0  0  0  0  0  0
    4.6602    0.8898   17.7172 C   0  0  0  0  0  0  0  0  0  0  0  0
    4.2084    1.3605   19.0679 C   0  0  0  0  0  0  0  0  0  0  0  0
    3.2792    2.5325   19.1816 C   0  0  0  0  0  0  0  0  0  0  0  0
    2.8274    3.0031   20.5323 C   0  0  0  0  0  0  0  0  0  0  0  0
    3.3049    2.3017   21.7693 C   0  0  0  0  0  0  0  0  0  0  0  0
    4.2341    1.1297   21.6556 C   0  0  0  0  0  0  0  0  0  0  0  0
    4.6859    0.6591   20.3049 C   0  0  0  0  0  0  0  0  0  0  0  0
  5  6  1  0  0  0
  6  7  1  0  0  0
  7  8  1  0  0  0
  8  1  1  0  0  0
  1  2  2  0  0  0
  1  3  1  0  0  0
  3 18  1  0  0  0
 18 19  2  0  0  0
 19 20  1  0  0  0
 20 21  2  0  0  0
 21 22  1  0  0  0
 22 23  2  0  0  0
 23 24  1  0  0  0
 24 25  2  0  0  0
 25 26  1  0  0  0
 26 27  2  0  0  0
  8  9  1  0  0  0
  9 10  2  0  0  0
 10 11  1  0  0  0
 11 12  1  0  0  0
 11 13  2  0  0  0
 13 14  1  0  0  0
 14 15  2  0  0  0
 15 16  1  0  0  0
 16 17  2  0  0  0
 16  6  1  0  0  0
 27 18  1  0  0  0
 15  9  1  0  0  0
 27 22  1  0  0  0
  3  4  1  0  0  0
M  END
> <minimizedAffinity>
-8.04001

> <CNNscore>
0.7333011627

> <CNNaffinity>
6.0534071922

> <CNN_VS>
4.4389705658

> <CNNaffinity_variance>
0.1260063499

$$$$



 27 30  0  0  0  0  0  0  0  0999 V2000
    8.3222   -3.6348   25.4813 C   0  0  0  0  0  0  0  0  0  0  0  0
    8.8791   -4.1823   24.2006 O   0  0  0  0  0  0  0  0  0  0  0  0
    9.1914   -2.8134   26.3866 N   0  0  0  0  0  0  0  0  0  0  0  0
    8.8258   -2.4540   27.2271 H   0  0  0  0  0  0  0  0  0  0  0  0
    4.3931   -3.1995   28.8537 C   0  0  0  0  0  0  0  0  0  0  0  0
    4.9314   -3.6911   27.5427 N   0  0  0  0  0  0  0  0  0  0  0  0
    6.3576   -3.4172   27.1674 C   0  0  0  0  0  0  0  0  0  0  0  0
    6.8959   -3.9088   25.8565 C   0  0  0  0  0  0  0  0  0  0  0  0
    6.0080   -4.6744   24.9209 C   0  0  0  0  0  0  0  0  0  0  0  0
    6.5463   -5.1661   23.6100 C   0  0  0  0  0  0  0  0  0  0  0  0
    5.6584   -5.9317   22.6743 C   0  0  0  0  0  0  0  0  0  0  0  0
    6.1967   -6.4233   21.3634 Cl  0  0  0  0  0  0  0  0  0  0  0  0
    4.2322   -6.2056   23.0496 C   0  0  0  0  0  0  0  0  0  0  0  0
    3.6939   -5.7140   24.3605 C   0  0  0  0  0  0  0  0  0  0  0  0
    4.5818   -4.9484   25.2961 C   0  0  0  0  0  0  0  0  0  0  0  0
    4.0435   -4.4567   26.6071 C   0  0  0  0  0  0  0  0  0  0  0  0
    2.6173   -4.7307   26.9824 O   0  0  0  0  0  0  0  0  0  0  0  0
   10.6176   -2.5394   26.0113 C   0  0  0  0  0  0  0  0  0  0  0  0
   11.7198   -3.3744   26.5926 C   0  0  0  0  0  0  0  0  0  0  0  0
   13.1460   -3.1004   26.2174 N   0  0  0  0  0  0  0  0  0  0  0  0
   13.4700   -1.9914   25.2607 C   0  0  0  0  0  0  0  0  0  0  0  0
   12.3678   -1.1564   24.6794 C   0  0  0  0  0  0  0  0  0  0  0  0
   12.6919   -0.0474   23.7227 C   0  0  0  0  0  0  0  0  0  0  0  0
   11.5897    0.7875   23.1414 C   0  0  0  0  0  0  0  0  0  0  0  0
   10.1635    0.5136   23.5167 C   0  0  0  0  0  0  0  0  0  0  0  0
    9.8395   -0.5954   24.4733 C   0  0  0  0  0  0  0  0  0  0  0  0
   10.9416   -1.4304   25.0546 C   0  0  0  0  0  0  0  0  0  0  0  0
  5  6  1  0  0  0
  6  7  1  0  0  0
  7  8  1  0  0  0
  8  1  1  0  0  0
  1  2  2  0  0  0
  1  3  1  0  0  0
  3 18  1  0  0  0
 18 19  2  0  0  0
 19 20  1  0  0  0
 20 21  2  0  0  0
 21 22  1  0  0  0
 22 23  2  0  0  0
 23 24  1  0  0  0
 24 25  2  0  0  0
 25 26  1  0  0  0
 26 27  2  0  0  0
  8  9  1  0  0  0
  9 10  2  0  0  0
 10 11  1  0  0  0
 11 12  1  0  0  0
 11 13  2  0  0  0
 13 14  1  0  0  0
 14 15  2  0  0  0
 15 16  1  0  0  0
 16 17  2  0  0  0
 16  6  1  0  0  0
 27 18  1  0  0  0
 15  9  1  0  0  0
 27 22  1  0  0  0
  3  4  1  0  0  0
M  END
> <minimizedAffinity>
-7.44271

> <CNNscore>
0.6205558777

> <CNNaffinity>
5.9914083481

> <CNN_VS>
3.7180037498

> <CNNaffinity_variance>
0.1094189733

$$$$



 27 30  0  0  0  0  0  0  0  0999 V2000
    8.1222   -3.2838   25.5433 C   0  0  0  0  0  0  0  0  0  0  0  0
    8.2072   -1.8572   25.9989 O   0  0  0  0  0  0  0  0  0  0  0  0
    9.3754   -4.0496   25.2381 N   0  0  0  0  0  0  0  0  0  0  0  0
    9.3196   -4.9859   24.9391 H   0  0  0  0  0  0  0  0  0  0  0  0
    4.6993   -5.9068   22.6443 C   0  0  0  0  0  0  0  0  0  0  0  0
    5.0726   -5.2561   23.9433 N   0  0  0  0  0  0  0  0  0  0  0  0
    6.4108   -4.5953   24.0938 C   0  0  0  0  0  0  0  0  0  0  0  0
    6.7841   -3.9447   25.3928 C   0  0  0  0  0  0  0  0  0  0  0  0
    5.8192   -3.9548   26.5413 C   0  0  0  0  0  0  0  0  0  0  0  0
    6.1925   -3.3042   27.8402 C   0  0  0  0  0  0  0  0  0  0  0  0
    5.2277   -3.3143   28.9886 C   0  0  0  0  0  0  0  0  0  0  0  0
    5.6010   -2.6637   30.2876 Cl  0  0  0  0  0  0  0  0  0  0  0  0
    3.8895   -3.9752   28.8381 C   0  0  0  0  0  0  0  0  0  0  0  0
    3.5162   -4.6258   27.5392 C   0  0  0  0  0  0  0  0  0  0  0  0
    4.4810   -4.6156   26.3908 C   0  0  0  0  0  0  0  0  0  0  0  0
    4.1078   -5.2663   25.0918 C   0  0  0  0  0  0  0  0  0  0  0  0
    2.7696   -5.9271   24.9413 O   0  0  0  0  0  0  0  0  0  0  0  0
   10.7136   -3.3888   25.3886 C   0  0  0  0  0  0  0  0  0  0  0  0
   11.5804   -3.7106   26.5697 C   0  0  0  0  0  0  0  0  0  0  0  0
   12.9185   -3.0498   26.7202 N   0  0  0  0  0  0  0  0  0  0  0  0
   13.3899   -2.0671   25.6896 C   0  0  0  0  0  0  0  0  0  0  0  0
   12.5231   -1.7452   24.5084 C   0  0  0  0  0  0  0  0  0  0  0  0
   12.9944   -0.7626   23.4778 C   0  0  0  0  0  0  0  0  0  0  0  0
   12.1276   -0.4408   22.2967 C   0  0  0  0  0  0  0  0  0  0  0  0
   10.7894   -1.1016   22.1463 C   0  0  0  0  0  0  0  0  0  0  0  0
   10.3181   -2.0842   23.1768 C   0  0  0  0  0  0  0  0  0  0  0  0
   11.1849   -2.4061   24.3579 C   0  0  0  0  0  0  0  0  0  0  0  0
  5  6  1  0  0  0
  6  7  1  0  0  0
  7  8  1  0  0  0
  8  1  1  0  0  0
  1  2  2  0  0  0
  1  3  1  0  0  0
  3 18  1  0  0  0
 18 19  2  0  0  0
 19 20  1  0  0  0
 20 21  2  0  0  0
 21 22  1  0  0  0
 22 23  2  0  0  0
 23 24  1  0  0  0
 24 25  2  0  0  0
 25 26  1  0  0  0
 26 27  2  0  0  0
  8  9  1  0  0  0
  9 10  2  0  0  0
 10 11  1  0  0  0
 11 12  1  0  0  0
 11 13  2  0  0  0
 13 14  1  0  0  0
 14 15  2  0  0  0
 15 16  1  0  0  0
 16 17  2  0  0  0
 16  6  1  0  0  0
 27 18  1  0  0  0
 15  9  1  0  0  0
 27 22  1  0  0  0
  3  4  1  0  0  0
M  END
> <minimizedAffinity>
-7.33596

> <CNNscore>
0.5633597374

> <CNNaffinity>
5.9435510635

> <CNN_VS>
3.3483574390

> <CNNaffinity_variance>
0.1426747143

$$$$



 27 30  0  0  0  0  0  0  0  0999 V2000
   10.5421    0.3804   23.7483 C   0  0  0  0  0  0  0  0  0  0  0  0
   11.9689    0.5297   24.1869 O   0  0  0  0  0  0  0  0  0  0  0  0
    9.8396    1.5243   23.0792 N   0  0  0  0  0  0  0  0  0  0  0  0
    8.9032    1.4263   22.7913 H   0  0  0  0  0  0  0  0  0  0  0  0
    6.3620   -2.6244   23.0429 C   0  0  0  0  0  0  0  0  0  0  0  0
    7.7280   -2.4153   23.6263 N   0  0  0  0  0  0  0  0  0  0  0  0
    8.4521   -1.1220   23.3956 C   0  0  0  0  0  0  0  0  0  0  0  0
    9.8181   -0.9129   23.9790 C   0  0  0  0  0  0  0  0  0  0  0  0
   10.4601   -1.9970   24.7930 C   0  0  0  0  0  0  0  0  0  0  0  0
   11.8260   -1.7879   25.3763 C   0  0  0  0  0  0  0  0  0  0  0  0
   12.4679   -2.8720   26.1903 C   0  0  0  0  0  0  0  0  0  0  0  0
   13.8340   -2.6629   26.7736 Cl  0  0  0  0  0  0  0  0  0  0  0  0
   11.7439   -4.1653   26.4209 C   0  0  0  0  0  0  0  0  0  0  0  0
   10.3779   -4.3744   25.8376 C   0  0  0  0  0  0  0  0  0  0  0  0
    9.7360   -3.2903   25.0236 C   0  0  0  0  0  0  0  0  0  0  0  0
    8.3699   -3.4994   24.4403 C   0  0  0  0  0  0  0  0  0  0  0  0
    7.6459   -4.7927   24.6709 O   0  0  0  0  0  0  0  0  0  0  0  0
   10.5637    2.8175   22.8485 C   0  0  0  0  0  0  0  0  0  0  0  0
   12.0192    2.8079   22.4864 C   0  0  0  0  0  0  0  0  0  0  0  0
   12.7433    4.1012   22.2558 N   0  0  0  0  0  0  0  0  0  0  0  0
   12.0118    5.4041   22.3872 C   0  0  0  0  0  0  0  0  0  0  0  0
   10.5561    5.4137   22.7493 C   0  0  0  0  0  0  0  0  0  0  0  0
    9.8246    6.7166   22.8808 C   0  0  0  0  0  0  0  0  0  0  0  0
    8.3691    6.7263   23.2429 C   0  0  0  0  0  0  0  0  0  0  0  0
    7.6450    5.4330   23.4735 C   0  0  0  0  0  0  0  0  0  0  0  0
    8.3765    4.1301   23.3421 C   0  0  0  0  0  0  0  0  0  0  0  0
    9.8321    4.1205   22.9800 C   0  0  0  0  0  0  0  0  0  0  0  0
  5  6  1  0  0  0
  6  7  1  0  0  0
  7  8  1  0  0  0
  8  1  1  0  0  0
  1  2  2  0  0  0
  1  3  1  0  0  0
  3 18  1  0  0  0
 18 19  2  0  0  0
 19 20  1  0  0  0
 20 21  2  0  0  0
 21 22  1  0  0  0
 22 23  2  0  0  0
 23 24  1  0  0  0
 24 25  2  0  0  0
 25 26  1  0  0  0
 26 27  2  0  0  0
  8  9  1  0  0  0
  9 10  2  0  0  0
 10 11  1  0  0  0
 11 12  1  0  0  0
 11 13  2  0  0  0
 13 14  1  0  0  0
 14 15  2  0  0  0
 15 16  1  0  0  0
 16 17  2  0  0  0
 16  6  1  0  0  0
 27 18  1  0  0  0
 15  9  1  0  0  0
 27 22  1  0  0  0
  3  4  1  0  0  0
M  END
> <minimizedAffinity>
-8.05541

> <CNNscore>
0.5390924811

> <CNNaffinity>
5.9136886597

> <CNN_VS>
3.1880249977

> <CNNaffinity_variance>
0.2526528537

$$$$



 27 30  0  0  0  0  0  0  0  0999 V2000
    7.6451   -0.8435   21.5815 C   0  0  0  0  0  0  0  0  0  0  0  0
    8.3071    0.4322   21.1522 O   0  0  0  0  0  0  0  0  0  0  0  0
    6.3211   -1.2355   20.9954 N   0  0  0  0  0  0  0  0  0  0  0  0
    5.8866   -2.0728   21.2772 H   0  0  0  0  0  0  0  0  0  0  0  0
    7.6480   -5.1656   24.4659 C   0  0  0  0  0  0  0  0  0  0  0  0
    8.3085   -3.8882   24.0390 N   0  0  0  0  0  0  0  0  0  0  0  0
    7.6465   -3.0045   23.0237 C   0  0  0  0  0  0  0  0  0  0  0  0
    8.3070   -1.7272   22.5968 C   0  0  0  0  0  0  0  0  0  0  0  0
    9.6295   -1.3336   23.1853 C   0  0  0  0  0  0  0  0  0  0  0  0
   10.2899   -0.0563   22.7584 C   0  0  0  0  0  0  0  0  0  0  0  0
   11.6123    0.3373   23.3468 C   0  0  0  0  0  0  0  0  0  0  0  0
   12.2729    1.6146   22.9199 Cl  0  0  0  0  0  0  0  0  0  0  0  0
   12.2743   -0.5464   24.3622 C   0  0  0  0  0  0  0  0  0  0  0  0
   11.6138   -1.8237   24.7891 C   0  0  0  0  0  0  0  0  0  0  0  0
   10.2914   -2.2173   24.2006 C   0  0  0  0  0  0  0  0  0  0  0  0
    9.6309   -3.4946   24.6275 C   0  0  0  0  0  0  0  0  0  0  0  0
   10.2928   -4.3783   25.6428 O   0  0  0  0  0  0  0  0  0  0  0  0
    5.6592   -0.3518   19.9801 C   0  0  0  0  0  0  0  0  0  0  0  0
    6.0505   -0.4459   18.5351 C   0  0  0  0  0  0  0  0  0  0  0  0
    5.3886    0.4378   17.5198 N   0  0  0  0  0  0  0  0  0  0  0  0
    4.3353    1.4156   17.9494 C   0  0  0  0  0  0  0  0  0  0  0  0
    3.9439    1.5097   19.3944 C   0  0  0  0  0  0  0  0  0  0  0  0
    2.8907    2.4874   19.8241 C   0  0  0  0  0  0  0  0  0  0  0  0
    2.4994    2.5814   21.2690 C   0  0  0  0  0  0  0  0  0  0  0  0
    3.1613    1.6977   22.2844 C   0  0  0  0  0  0  0  0  0  0  0  0
    4.2146    0.7200   21.8547 C   0  0  0  0  0  0  0  0  0  0  0  0
    4.6059    0.6260   20.4098 C   0  0  0  0  0  0  0  0  0  0  0  0
  5  6  1  0  0  0
  6  7  1  0  0  0
  7  8  1  0  0  0
  8  1  1  0  0  0
  1  2  2  0  0  0
  1  3  1  0  0  0
  3 18  1  0  0  0
 18 19  2  0  0  0
 19 20  1  0  0  0
 20 21  2  0  0  0
 21 22  1  0  0  0
 22 23  2  0  0  0
 23 24  1  0  0  0
 24 25  2  0  0  0
 25 26  1  0  0  0
 26 27  2  0  0  0
  8  9  1  0  0  0
  9 10  2  0  0  0
 10 11  1  0  0  0
 11 12  1  0  0  0
 11 13  2  0  0  0
 13 14  1  0  0  0
 14 15  2  0  0  0
 15 16  1  0  0  0
 16 17  2  0  0  0
 16  6  1  0  0  0
 27 18  1  0  0  0
 15  9  1  0  0  0
 27 22  1  0  0  0
  3  4  1  0  0  0
M  END
> <minimizedAffinity>
-8.59155

> <CNNscore>
0.5315327644

> <CNNaffinity>
5.7396097183

> <CNN_VS>
3.0507905483

> <CNNaffinity_variance>
0.0930454731

$$$$



 27 30  0  0  0  0  0  0  0  0999 V2000
    7.8366   -3.1582   25.1101 C   0  0  0  0  0  0  0  0  0  0  0  0
    8.6812   -3.9244   24.1355 O   0  0  0  0  0  0  0  0  0  0  0  0
    8.2467   -1.7797   25.5361 N   0  0  0  0  0  0  0  0  0  0  0  0
    7.6924   -1.2768   26.1757 H   0  0  0  0  0  0  0  0  0  0  0  0
    4.5219   -3.8609   29.0495 C   0  0  0  0  0  0  0  0  0  0  0  0
    4.9246   -4.1219   27.6283 N   0  0  0  0  0  0  0  0  0  0  0  0
    6.1792   -3.5095   27.0797 C   0  0  0  0  0  0  0  0  0  0  0  0
    6.5820   -3.7706   25.6586 C   0  0  0  0  0  0  0  0  0  0  0  0
    5.7301   -4.6440   24.7860 C   0  0  0  0  0  0  0  0  0  0  0  0
    6.1329   -4.9050   23.3648 C   0  0  0  0  0  0  0  0  0  0  0  0
    5.2810   -5.7784   22.4923 C   0  0  0  0  0  0  0  0  0  0  0  0
    5.6838   -6.0395   21.0711 Cl  0  0  0  0  0  0  0  0  0  0  0  0
    4.0264   -6.3908   23.0408 C   0  0  0  0  0  0  0  0  0  0  0  0
    3.6236   -6.1298   24.4619 C   0  0  0  0  0  0  0  0  0  0  0  0
    4.4755   -5.2564   25.3345 C   0  0  0  0  0  0  0  0  0  0  0  0
    4.0728   -4.9953   26.7557 C   0  0  0  0  0  0  0  0  0  0  0  0
    2.8181   -5.6077   27.3042 O   0  0  0  0  0  0  0  0  0  0  0  0
    9.5014   -1.1673   24.9876 C   0  0  0  0  0  0  0  0  0  0  0  0
    9.4172   -0.0221   24.0226 C   0  0  0  0  0  0  0  0  0  0  0  0
   10.6718    0.5903   23.4740 N   0  0  0  0  0  0  0  0  0  0  0  0
   12.0106    0.0575   23.8905 C   0  0  0  0  0  0  0  0  0  0  0  0
   12.0949   -1.0878   24.8556 C   0  0  0  0  0  0  0  0  0  0  0  0
   13.4338   -1.6206   25.2721 C   0  0  0  0  0  0  0  0  0  0  0  0
   13.5180   -2.7658   26.2372 C   0  0  0  0  0  0  0  0  0  0  0  0
   12.2633   -3.3782   26.7857 C   0  0  0  0  0  0  0  0  0  0  0  0
   10.9245   -2.8454   26.3692 C   0  0  0  0  0  0  0  0  0  0  0  0
   10.8403   -1.7002   25.4041 C   0  0  0  0  0  0  0  0  0  0  0  0
  5  6  1  0  0  0
  6  7  1  0  0  0
  7  8  1  0  0  0
  8  1  1  0  0  0
  1  2  2  0  0  0
  1  3  1  0  0  0
  3 18  1  0  0  0
 18 19  2  0  0  0
 19 20  1  0  0  0
 20 21  2  0  0  0
 21 22  1  0  0  0
 22 23  2  0  0  0
 23 24  1  0  0  0
 24 25  2  0  0  0
 25 26  1  0  0  0
 26 27  2  0  0  0
  8  9  1  0  0  0
  9 10  2  0  0  0
 10 11  1  0  0  0
 11 12  1  0  0  0
 11 13  2  0  0  0
 13 14  1  0  0  0
 14 15  2  0  0  0
 15 16  1  0  0  0
 16 17  2  0  0  0
 16  6  1  0  0  0
 27 18  1  0  0  0
 15  9  1  0  0  0
 27 22  1  0  0  0
  3  4  1  0  0  0
M  END
> <minimizedAffinity>
-7.45255

> <CNNscore>
0.5120777488

> <CNNaffinity>
5.7843456268

> <CNN_VS>
2.9620347023

> <CNNaffinity_variance>
0.1080573350

$$$$



 27 30  0  0  0  0  0  0  0  0999 V2000
    6.9752   -1.9176   24.7355 C   0  0  0  0  0  0  0  0  0  0  0  0
    6.9916   -1.4636   23.3059 O   0  0  0  0  0  0  0  0  0  0  0  0
    8.1714   -1.6851   25.6100 N   0  0  0  0  0  0  0  0  0  0  0  0
    8.1607   -1.9831   26.5483 H   0  0  0  0  0  0  0  0  0  0  0  0
    2.4266   -1.6923   27.2374 C   0  0  0  0  0  0  0  0  0  0  0  0
    3.4882   -2.4915   26.5414 N   0  0  0  0  0  0  0  0  0  0  0  0
    4.7009   -1.8050   25.9865 C   0  0  0  0  0  0  0  0  0  0  0  0
    5.7624   -2.6041   25.2905 C   0  0  0  0  0  0  0  0  0  0  0  0
    5.6113   -4.0899   25.1495 C   0  0  0  0  0  0  0  0  0  0  0  0
    6.6729   -4.8890   24.4535 C   0  0  0  0  0  0  0  0  0  0  0  0
    6.5218   -6.3747   24.3125 C   0  0  0  0  0  0  0  0  0  0  0  0
    7.5834   -7.1739   23.6166 Cl  0  0  0  0  0  0  0  0  0  0  0  0
    5.3090   -7.0612   24.8675 C   0  0  0  0  0  0  0  0  0  0  0  0
    4.2475   -6.2621   25.5635 C   0  0  0  0  0  0  0  0  0  0  0  0
    4.3986   -4.7764   25.7045 C   0  0  0  0  0  0  0  0  0  0  0  0
    3.3370   -3.9772   26.4005 C   0  0  0  0  0  0  0  0  0  0  0  0
    2.1243   -4.6637   26.9554 O   0  0  0  0  0  0  0  0  0  0  0  0
    9.3841   -0.9986   25.0551 C   0  0  0  0  0  0  0  0  0  0  0  0
    9.2292    0.2327   24.2126 C   0  0  0  0  0  0  0  0  0  0  0  0
   10.4419    0.9192   23.6576 N   0  0  0  0  0  0  0  0  0  0  0  0
   11.8096    0.3745   23.9451 C   0  0  0  0  0  0  0  0  0  0  0  0
   11.9646   -0.8569   24.7876 C   0  0  0  0  0  0  0  0  0  0  0  0
   13.3322   -1.4017   25.0751 C   0  0  0  0  0  0  0  0  0  0  0  0
   13.4871   -2.6330   25.9176 C   0  0  0  0  0  0  0  0  0  0  0  0
   12.2744   -3.3196   26.4726 C   0  0  0  0  0  0  0  0  0  0  0  0
   10.9068   -2.7748   26.1851 C   0  0  0  0  0  0  0  0  0  0  0  0
   10.7518   -1.5435   25.3426 C   0  0  0  0  0  0  0  0  0  0  0  0
  5  6  1  0  0  0
  6  7  1  0  0  0
  7  8  1  0  0  0
  8  1  1  0  0  0
  1  2  2  0  0  0
  1  3  1  0  0  0
  3 18  1  0  0  0
 18 19  2  0  0  0
 19 20  1  0  0  0
 20 21  2  0  0  0
 21 22  1  0  0  0
 22 23  2  0  0  0
 23 24  1  0  0  0
 24 25  2  0  0  0
 25 26  1  0  0  0
 26 27  2  0  0  0
  8  9  1  0  0  0
  9 10  2  0  0  0
 10 11  1  0  0  0
 11 12  1  0  0  0
 11 13  2  0  0  0
 13 14  1  0  0  0
 14 15  2  0  0  0
 15 16  1  0  0  0
 16 17  2  0  0  0
 16  6  1  0  0  0
 27 18  1  0  0  0
 15  9  1  0  0  0
 27 22  1  0  0  0
  3  4  1  0  0  0
M  END
> <minimizedAffinity>
-7.11522

> <CNNscore>
0.4983130991

> <CNNaffinity>
5.8546681404

> <CNN_VS>
2.9174578190

> <CNNaffinity_variance>
0.3093853593

$$$$



 27 30  0  0  0  0  0  0  0  0999 V2000
    7.8962   -2.9095   24.6646 C   0  0  0  0  0  0  0  0  0  0  0  0
    8.0438   -1.8055   25.6694 O   0  0  0  0  0  0  0  0  0  0  0  0
    8.9558   -3.1239   23.6249 N   0  0  0  0  0  0  0  0  0  0  0  0
    8.8589   -3.8485   22.9654 H   0  0  0  0  0  0  0  0  0  0  0  0
    4.6826   -6.2300   22.2883 C   0  0  0  0  0  0  0  0  0  0  0  0
    5.0822   -5.4593   23.5116 N   0  0  0  0  0  0  0  0  0  0  0  0
    6.2894   -4.5697   23.4765 C   0  0  0  0  0  0  0  0  0  0  0  0
    6.6890   -3.7990   24.6997 C   0  0  0  0  0  0  0  0  0  0  0  0
    5.8812   -3.9179   25.9581 C   0  0  0  0  0  0  0  0  0  0  0  0
    6.2807   -3.1472   27.1814 C   0  0  0  0  0  0  0  0  0  0  0  0
    5.4730   -3.2660   28.4397 C   0  0  0  0  0  0  0  0  0  0  0  0
    5.8725   -2.4953   29.6630 Cl  0  0  0  0  0  0  0  0  0  0  0  0
    4.2658   -4.1556   28.4748 C   0  0  0  0  0  0  0  0  0  0  0  0
    3.8662   -4.9263   27.2515 C   0  0  0  0  0  0  0  0  0  0  0  0
    4.6739   -4.8074   25.9932 C   0  0  0  0  0  0  0  0  0  0  0  0
    4.2744   -5.5781   24.7699 C   0  0  0  0  0  0  0  0  0  0  0  0
    3.0672   -6.4677   24.8050 O   0  0  0  0  0  0  0  0  0  0  0  0
   10.1631   -2.2344   23.5898 C   0  0  0  0  0  0  0  0  0  0  0  0
   10.2700   -1.1557   22.5530 C   0  0  0  0  0  0  0  0  0  0  0  0
   11.4773   -0.2662   22.5179 N   0  0  0  0  0  0  0  0  0  0  0  0
   12.5776   -0.4553   23.5196 C   0  0  0  0  0  0  0  0  0  0  0  0
   12.4707   -1.5340   24.5565 C   0  0  0  0  0  0  0  0  0  0  0  0
   13.5710   -1.7231   25.5582 C   0  0  0  0  0  0  0  0  0  0  0  0
   13.4641   -2.8017   26.5951 C   0  0  0  0  0  0  0  0  0  0  0  0
   12.2568   -3.6913   26.6301 C   0  0  0  0  0  0  0  0  0  0  0  0
   11.1565   -3.5022   25.6284 C   0  0  0  0  0  0  0  0  0  0  0  0
   11.2634   -2.4235   24.5916 C   0  0  0  0  0  0  0  0  0  0  0  0
  5  6  1  0  0  0
  6  7  1  0  0  0
  7  8  1  0  0  0
  8  1  1  0  0  0
  1  2  2  0  0  0
  1  3  1  0  0  0
  3 18  1  0  0  0
 18 19  2  0  0  0
 19 20  1  0  0  0
 20 21  2  0  0  0
 21 22  1  0  0  0
 22 23  2  0  0  0
 23 24  1  0  0  0
 24 25  2  0  0  0
 25 26  1  0  0  0
 26 27  2  0  0  0
  8  9  1  0  0  0
  9 10  2  0  0  0
 10 11  1  0  0  0
 11 12  1  0  0  0
 11 13  2  0  0  0
 13 14  1  0  0  0
 14 15  2  0  0  0
 15 16  1  0  0  0
 16 17  2  0  0  0
 16  6  1  0  0  0
 27 18  1  0  0  0
 15  9  1  0  0  0
 27 22  1  0  0  0
  3  4  1  0  0  0
M  END
> <minimizedAffinity>
-7.30690

> <CNNscore>
0.4343758225

> <CNNaffinity>
5.7984080315

> <CNN_VS>
2.5186882019

> <CNNaffinity_variance>
0.1215755343

$$$$



 27 30  0  0  0  0  0  0  0  0999 V2000
    7.6469   -1.0642   21.7392 C   0  0  0  0  0  0  0  0  0  0  0  0
    8.5204   -0.1062   20.9845 O   0  0  0  0  0  0  0  0  0  0  0  0
    6.2167   -1.2567   21.3302 N   0  0  0  0  0  0  0  0  0  0  0  0
    5.6435   -1.8855   21.8256 H   0  0  0  0  0  0  0  0  0  0  0  0
   10.7866   -1.3155   25.8719 C   0  0  0  0  0  0  0  0  0  0  0  0
    9.7736   -1.9552   24.9692 N   0  0  0  0  0  0  0  0  0  0  0  0
    9.2167   -1.1899   23.8055 C   0  0  0  0  0  0  0  0  0  0  0  0
    8.2038   -1.8295   22.9029 C   0  0  0  0  0  0  0  0  0  0  0  0
    7.7477   -3.2345   23.1639 C   0  0  0  0  0  0  0  0  0  0  0  0
    6.7348   -3.8741   22.2612 C   0  0  0  0  0  0  0  0  0  0  0  0
    6.2787   -5.2790   22.5223 C   0  0  0  0  0  0  0  0  0  0  0  0
    5.2657   -5.9186   21.6196 Cl  0  0  0  0  0  0  0  0  0  0  0  0
    6.8356   -6.0443   23.6860 C   0  0  0  0  0  0  0  0  0  0  0  0
    7.8485   -5.4047   24.5886 C   0  0  0  0  0  0  0  0  0  0  0  0
    8.3046   -3.9998   24.3276 C   0  0  0  0  0  0  0  0  0  0  0  0
    9.3176   -3.3601   25.2303 C   0  0  0  0  0  0  0  0  0  0  0  0
    9.8744   -4.1254   26.3940 O   0  0  0  0  0  0  0  0  0  0  0  0
    5.6598   -0.4914   20.1665 C   0  0  0  0  0  0  0  0  0  0  0  0
    6.0734   -0.8456   18.7689 C   0  0  0  0  0  0  0  0  0  0  0  0
    5.5165   -0.0803   17.6052 N   0  0  0  0  0  0  0  0  0  0  0  0
    4.5461    1.0392   17.8391 C   0  0  0  0  0  0  0  0  0  0  0  0
    4.1324    1.3935   19.2368 C   0  0  0  0  0  0  0  0  0  0  0  0
    3.1619    2.5130   19.4708 C   0  0  0  0  0  0  0  0  0  0  0  0
    2.7484    2.8672   20.8684 C   0  0  0  0  0  0  0  0  0  0  0  0
    3.3052    2.1019   22.0321 C   0  0  0  0  0  0  0  0  0  0  0  0
    4.2757    0.9824   21.7982 C   0  0  0  0  0  0  0  0  0  0  0  0
    4.6893    0.6282   20.4005 C   0  0  0  0  0  0  0  0  0  0  0  0
  5  6  1  0  0  0
  6  7  1  0  0  0
  7  8  1  0  0  0
  8  1  1  0  0  0
  1  2  2  0  0  0
  1  3  1  0  0  0
  3 18  1  0  0  0
 18 19  2  0  0  0
 19 20  1  0  0  0
 20 21  2  0  0  0
 21 22  1  0  0  0
 22 23  2  0  0  0
 23 24  1  0  0  0
 24 25  2  0  0  0
 25 26  1  0  0  0
 26 27  2  0  0  0
  8  9  1  0  0  0
  9 10  2  0  0  0
 10 11  1  0  0  0
 11 12  1  0  0  0
 11 13  2  0  0  0
 13 14  1  0  0  0
 14 15  2  0  0  0
 15 16  1  0  0  0
 16 17  2  0  0  0
 16  6  1  0  0  0
 27 18  1  0  0  0
 15  9  1  0  0  0
 27 22  1  0  0  0
  3  4  1  0  0  0
M  END
> <minimizedAffinity>
-7.39087

> <CNNscore>
0.3345529437

> <CNNaffinity>
5.5202941895

> <CNN_VS>
1.8468307257

> <CNNaffinity_variance>
0.1295327246

$$$$
