


 28 31  0  0  0  0  0  0  0  0999 V2000
   -7.8897   -3.7467  -23.8175 C   0  0  0  0  0  0  0  0  0  0  0  0
   -8.5848   -4.5971  -24.8392 C   0  0  0  0  0  0  0  0  0  0  0  0
   -8.3482   -6.0780  -24.8687 C   0  0  0  0  0  0  0  0  0  0  0  0
   -9.0433   -6.9283  -25.8903 C   0  0  0  0  0  0  0  0  0  0  0  0
   -7.4166   -6.7086  -23.8765 C   0  0  0  0  0  0  0  0  0  0  0  0
   -6.7215   -5.8583  -22.8548 C   0  0  0  0  0  0  0  0  0  0  0  0
   -6.9581   -4.3773  -22.8253 N   0  0  0  0  0  0  0  0  0  0  0  0
   -6.2631   -3.5269  -21.8037 C   0  0  0  0  0  0  0  0  0  0  0  0
   -5.3314   -4.1576  -20.8115 O   0  0  0  0  0  0  0  0  0  0  0  0
   -9.3112   -1.7099  -23.0552 C   0  0  0  0  0  0  0  0  0  0  0  0
   -9.5477   -0.2290  -23.0258 C   0  0  0  0  0  0  0  0  0  0  0  0
   -8.5994    0.6961  -23.7292 C   0  0  0  0  0  0  0  0  0  0  0  0
   -7.4146    0.1403  -24.4621 C   0  0  0  0  0  0  0  0  0  0  0  0
   -7.1780   -1.3406  -24.4916 C   0  0  0  0  0  0  0  0  0  0  0  0
   -8.1263   -2.2657  -23.7881 C   0  0  0  0  0  0  0  0  0  0  0  0
  -11.7078   -2.6623  -22.7407 C   0  0  0  0  0  0  0  0  0  0  0  0
  -10.2595   -2.6350  -22.3517 O   0  0  0  0  0  0  0  0  0  0  0  0
   -6.4996   -2.0460  -21.7742 C   0  0  0  0  0  0  0  0  0  0  0  0
   -6.0409   -1.2365  -20.5976 C   0  0  0  0  0  0  0  0  0  0  0  0
   -6.7333   -1.3775  -19.2745 C   0  0  0  0  0  0  0  0  0  0  0  0
   -6.2746   -0.5679  -18.0980 N   0  0  0  0  0  0  0  0  0  0  0  0
   -5.1235    0.3825  -18.2445 C   0  0  0  0  0  0  0  0  0  0  0  0
   -4.4310    0.5235  -19.5677 C   0  0  0  0  0  0  0  0  0  0  0  0
   -3.2799    1.4740  -19.7143 C   0  0  0  0  0  0  0  0  0  0  0  0
   -2.5876    1.6150  -21.0374 C   0  0  0  0  0  0  0  0  0  0  0  0
   -3.0463    0.8055  -22.2140 C   0  0  0  0  0  0  0  0  0  0  0  0
   -4.1974   -0.1450  -22.0674 C   0  0  0  0  0  0  0  0  0  0  0  0
   -4.8897   -0.2860  -20.7443 C   0  0  0  0  0  0  0  0  0  0  0  0
 16 17  1  0  0  0
 17 10  1  0  0  0
 10 11  2  0  0  0
 11 12  1  0  0  0
 12 13  2  0  0  0
 13 14  1  0  0  0
 14 15  2  0  0  0
  1 15  1  0  0  0
  1  2  1  0  0  0
  2  3  1  0  0  0
  3  4  1  0  0  0
  3  5  1  0  0  0
  5  6  1  0  0  0
  6  7  1  0  0  0
  7  8  1  0  0  0
  8  9  2  0  0  0
  8 18  1  0  0  0
 18 19  1  0  0  0
 19 20  2  0  0  0
 20 21  1  0  0  0
 21 22  2  0  0  0
 22 23  1  0  0  0
 23 24  2  0  0  0
 24 25  1  0  0  0
 25 26  2  0  0  0
 26 27  1  0  0  0
 27 28  2  0  0  0
 15 10  1  0  0  0
  7  1  1  0  0  0
 28 19  1  0  0  0
 28 23  1  0  0  0
M  END
> <minimizedAffinity>
-8.01361

> <CNNscore>
0.6355634332

> <CNNaffinity>
6.0267281532

> <CNN_VS>
3.8303680420

> <CNNaffinity_variance>
0.2368089408

$$$$



 28 31  0  0  0  0  0  0  0  0999 V2000
   -7.9974   -3.7213  -23.7082 C   0  0  0  0  0  0  0  0  0  0  0  0
   -8.7182   -4.5852  -24.7002 C   0  0  0  0  0  0  0  0  0  0  0  0
   -8.4046   -6.0494  -24.7870 C   0  0  0  0  0  0  0  0  0  0  0  0
   -9.1255   -6.9133  -25.7790 C   0  0  0  0  0  0  0  0  0  0  0  0
   -7.3702   -6.6499  -23.8818 C   0  0  0  0  0  0  0  0  0  0  0  0
   -6.6493   -5.7860  -22.8897 C   0  0  0  0  0  0  0  0  0  0  0  0
   -6.9630   -4.3217  -22.8030 N   0  0  0  0  0  0  0  0  0  0  0  0
   -6.2421   -3.4578  -21.8109 C   0  0  0  0  0  0  0  0  0  0  0  0
   -5.2077   -4.0582  -20.9057 O   0  0  0  0  0  0  0  0  0  0  0  0
   -7.6241   -1.2873  -24.5367 C   0  0  0  0  0  0  0  0  0  0  0  0
   -7.9377    0.1770  -24.4499 C   0  0  0  0  0  0  0  0  0  0  0  0
   -8.9383    0.6715  -23.4478 C   0  0  0  0  0  0  0  0  0  0  0  0
   -9.6253   -0.2981  -22.5325 C   0  0  0  0  0  0  0  0  0  0  0  0
   -9.3116   -1.7624  -22.6193 C   0  0  0  0  0  0  0  0  0  0  0  0
   -8.3110   -2.2569  -23.6214 C   0  0  0  0  0  0  0  0  0  0  0  0
   -5.1625   -1.7892  -25.1990 C   0  0  0  0  0  0  0  0  0  0  0  0
   -6.6235   -1.7818  -25.5388 O   0  0  0  0  0  0  0  0  0  0  0  0
   -6.5557   -1.9935  -21.7241 C   0  0  0  0  0  0  0  0  0  0  0  0
   -6.0726   -1.1912  -20.5524 C   0  0  0  0  0  0  0  0  0  0  0  0
   -6.7540   -1.3209  -19.2225 C   0  0  0  0  0  0  0  0  0  0  0  0
   -6.2709   -0.5186  -18.0508 N   0  0  0  0  0  0  0  0  0  0  0  0
   -5.1063    0.4134  -18.2090 C   0  0  0  0  0  0  0  0  0  0  0  0
   -4.4248    0.5432  -19.5390 C   0  0  0  0  0  0  0  0  0  0  0  0
   -3.2602    1.4752  -19.6973 C   0  0  0  0  0  0  0  0  0  0  0  0
   -2.5788    1.6049  -21.0272 C   0  0  0  0  0  0  0  0  0  0  0  0
   -3.0619    0.8025  -22.1989 C   0  0  0  0  0  0  0  0  0  0  0  0
   -4.2265   -0.1295  -22.0407 C   0  0  0  0  0  0  0  0  0  0  0  0
   -4.9080   -0.2592  -20.7107 C   0  0  0  0  0  0  0  0  0  0  0  0
 16 17  1  0  0  0
 17 10  1  0  0  0
 10 11  2  0  0  0
 11 12  1  0  0  0
 12 13  2  0  0  0
 13 14  1  0  0  0
 14 15  2  0  0  0
  1 15  1  0  0  0
  1  2  1  0  0  0
  2  3  1  0  0  0
  3  4  1  0  0  0
  3  5  1  0  0  0
  5  6  1  0  0  0
  6  7  1  0  0  0
  7  8  1  0  0  0
  8  9  2  0  0  0
  8 18  1  0  0  0
 18 19  1  0  0  0
 19 20  2  0  0  0
 20 21  1  0  0  0
 21 22  2  0  0  0
 22 23  1  0  0  0
 23 24  2  0  0  0
 24 25  1  0  0  0
 25 26  2  0  0  0
 26 27  1  0  0  0
 27 28  2  0  0  0
 15 10  1  0  0  0
  7  1  1  0  0  0
 28 19  1  0  0  0
 28 23  1  0  0  0
M  END
> <minimizedAffinity>
-7.68137

> <CNNscore>
0.6320174932

> <CNNaffinity>
5.8502993584

> <CNN_VS>
3.6974916458

> <CNNaffinity_variance>
0.4197962880

$$$$



 28 31  0  0  0  0  0  0  0  0999 V2000
   -5.2388    1.4643  -21.5147 C   0  0  0  0  0  0  0  0  0  0  0  0
   -4.1061    2.4352  -21.6705 C   0  0  0  0  0  0  0  0  0  0  0  0
   -3.0539    2.5370  -20.6064 C   0  0  0  0  0  0  0  0  0  0  0  0
   -1.9212    3.5080  -20.7621 C   0  0  0  0  0  0  0  0  0  0  0  0
   -3.1343    1.6679  -19.3864 C   0  0  0  0  0  0  0  0  0  0  0  0
   -4.2670    0.6970  -19.2306 C   0  0  0  0  0  0  0  0  0  0  0  0
   -5.3193    0.5952  -20.2948 N   0  0  0  0  0  0  0  0  0  0  0  0
   -6.4520   -0.3758  -20.1391 C   0  0  0  0  0  0  0  0  0  0  0  0
   -6.5324   -1.2449  -18.9191 O   0  0  0  0  0  0  0  0  0  0  0  0
   -6.0668    0.4839  -23.7738 C   0  0  0  0  0  0  0  0  0  0  0  0
   -7.1190    0.3821  -24.8379 C   0  0  0  0  0  0  0  0  0  0  0  0
   -8.3955    1.1589  -24.7072 C   0  0  0  0  0  0  0  0  0  0  0  0
   -8.6198    2.0375  -23.5123 C   0  0  0  0  0  0  0  0  0  0  0  0
   -7.5676    2.1393  -22.4482 C   0  0  0  0  0  0  0  0  0  0  0  0
   -6.2911    1.3625  -22.5789 C   0  0  0  0  0  0  0  0  0  0  0  0
   -4.6143   -1.2615  -25.0362 C   0  0  0  0  0  0  0  0  0  0  0  0
   -4.7903   -0.2930  -23.9045 O   0  0  0  0  0  0  0  0  0  0  0  0
   -7.5042   -0.4776  -21.2032 C   0  0  0  0  0  0  0  0  0  0  0  0
   -7.6912   -1.7636  -21.9524 C   0  0  0  0  0  0  0  0  0  0  0  0
   -6.5801   -2.7698  -22.0042 C   0  0  0  0  0  0  0  0  0  0  0  0
   -6.7671   -4.0558  -22.7535 N   0  0  0  0  0  0  0  0  0  0  0  0
   -8.0652   -4.3355  -23.4509 C   0  0  0  0  0  0  0  0  0  0  0  0
   -9.1765   -3.3292  -23.3991 C   0  0  0  0  0  0  0  0  0  0  0  0
  -10.4746   -3.6089  -24.0966 C   0  0  0  0  0  0  0  0  0  0  0  0
  -11.5858   -2.6026  -24.0448 C   0  0  0  0  0  0  0  0  0  0  0  0
  -11.3988   -1.3167  -23.2956 C   0  0  0  0  0  0  0  0  0  0  0  0
  -10.1006   -1.0370  -22.5981 C   0  0  0  0  0  0  0  0  0  0  0  0
   -8.9895   -2.0432  -22.6499 C   0  0  0  0  0  0  0  0  0  0  0  0
 16 17  1  0  0  0
 17 10  1  0  0  0
 10 11  2  0  0  0
 11 12  1  0  0  0
 12 13  2  0  0  0
 13 14  1  0  0  0
 14 15  2  0  0  0
  1 15  1  0  0  0
  1  2  1  0  0  0
  2  3  1  0  0  0
  3  4  1  0  0  0
  3  5  1  0  0  0
  5  6  1  0  0  0
  6  7  1  0  0  0
  7  8  1  0  0  0
  8  9  2  0  0  0
  8 18  1  0  0  0
 18 19  1  0  0  0
 19 20  2  0  0  0
 20 21  1  0  0  0
 21 22  2  0  0  0
 22 23  1  0  0  0
 23 24  2  0  0  0
 24 25  1  0  0  0
 25 26  2  0  0  0
 26 27  1  0  0  0
 27 28  2  0  0  0
 15 10  1  0  0  0
  7  1  1  0  0  0
 28 19  1  0  0  0
 28 23  1  0  0  0
M  END
> <minimizedAffinity>
-6.34796

> <CNNscore>
0.4046097696

> <CNNaffinity>
5.6782479286

> <CNN_VS>
2.2974746227

> <CNNaffinity_variance>
0.1230258793

$$$$



 28 31  0  0  0  0  0  0  0  0999 V2000
   -9.2902   -0.7541  -24.0070 C   0  0  0  0  0  0  0  0  0  0  0  0
   -8.4157   -1.9619  -24.1698 C   0  0  0  0  0  0  0  0  0  0  0  0
   -9.0255   -3.3321  -24.1910 C   0  0  0  0  0  0  0  0  0  0  0  0
   -8.1509   -4.5399  -24.3539 C   0  0  0  0  0  0  0  0  0  0  0  0
  -10.5100   -3.4947  -24.0492 C   0  0  0  0  0  0  0  0  0  0  0  0
  -11.3845   -2.2869  -23.8864 C   0  0  0  0  0  0  0  0  0  0  0  0
  -10.7746   -0.9166  -23.8652 N   0  0  0  0  0  0  0  0  0  0  0  0
  -11.6491    0.2911  -23.7024 C   0  0  0  0  0  0  0  0  0  0  0  0
  -13.1336    0.1285  -23.5606 O   0  0  0  0  0  0  0  0  0  0  0  0
   -8.2706    1.2347  -22.6822 C   0  0  0  0  0  0  0  0  0  0  0  0
   -7.6607    2.6049  -22.6611 C   0  0  0  0  0  0  0  0  0  0  0  0
   -7.4605    3.3566  -23.9437 C   0  0  0  0  0  0  0  0  0  0  0  0
   -7.8702    2.7380  -25.2473 C   0  0  0  0  0  0  0  0  0  0  0  0
   -8.4801    1.3678  -25.2684 C   0  0  0  0  0  0  0  0  0  0  0  0
   -8.6803    0.6162  -23.9858 C   0  0  0  0  0  0  0  0  0  0  0  0
   -7.3379   -0.2992  -20.8041 C   0  0  0  0  0  0  0  0  0  0  0  0
   -8.4708    0.4830  -21.3997 O   0  0  0  0  0  0  0  0  0  0  0  0
  -11.0393    1.6613  -23.6812 C   0  0  0  0  0  0  0  0  0  0  0  0
  -11.9083    2.8659  -23.4714 C   0  0  0  0  0  0  0  0  0  0  0  0
  -12.8299    2.9291  -22.2897 C   0  0  0  0  0  0  0  0  0  0  0  0
  -13.6988    4.1337  -22.0799 N   0  0  0  0  0  0  0  0  0  0  0  0
  -13.6462    5.2749  -23.0518 C   0  0  0  0  0  0  0  0  0  0  0  0
  -12.7245    5.2117  -24.2336 C   0  0  0  0  0  0  0  0  0  0  0  0
  -12.6719    6.3529  -25.2056 C   0  0  0  0  0  0  0  0  0  0  0  0
  -11.7503    6.2897  -26.3873 C   0  0  0  0  0  0  0  0  0  0  0  0
  -10.8813    5.0851  -26.5971 C   0  0  0  0  0  0  0  0  0  0  0  0
  -10.9340    3.9439  -25.6252 C   0  0  0  0  0  0  0  0  0  0  0  0
  -11.8556    4.0072  -24.4434 C   0  0  0  0  0  0  0  0  0  0  0  0
 16 17  1  0  0  0
 17 10  1  0  0  0
 10 11  2  0  0  0
 11 12  1  0  0  0
 12 13  2  0  0  0
 13 14  1  0  0  0
 14 15  2  0  0  0
  1 15  1  0  0  0
  1  2  1  0  0  0
  2  3  1  0  0  0
  3  4  1  0  0  0
  3  5  1  0  0  0
  5  6  1  0  0  0
  6  7  1  0  0  0
  7  8  1  0  0  0
  8  9  2  0  0  0
  8 18  1  0  0  0
 18 19  1  0  0  0
 19 20  2  0  0  0
 20 21  1  0  0  0
 21 22  2  0  0  0
 22 23  1  0  0  0
 23 24  2  0  0  0
 24 25  1  0  0  0
 25 26  2  0  0  0
 26 27  1  0  0  0
 27 28  2  0  0  0
 15 10  1  0  0  0
  7  1  1  0  0  0
 28 19  1  0  0  0
 28 23  1  0  0  0
M  END
> <minimizedAffinity>
-6.84647

> <CNNscore>
0.3941904008

> <CNNaffinity>
5.4833173752

> <CNN_VS>
2.1614711285

> <CNNaffinity_variance>
0.3091321290

$$$$



 28 31  0  0  0  0  0  0  0  0999 V2000
   -5.9842   -1.2907  -24.0990 C   0  0  0  0  0  0  0  0  0  0  0  0
   -4.6249   -0.9863  -24.6554 C   0  0  0  0  0  0  0  0  0  0  0  0
   -3.7388    0.0096  -23.9676 C   0  0  0  0  0  0  0  0  0  0  0  0
   -2.3795    0.3140  -24.5240 C   0  0  0  0  0  0  0  0  0  0  0  0
   -4.2120    0.7011  -22.7234 C   0  0  0  0  0  0  0  0  0  0  0  0
   -5.5713    0.3966  -22.1670 C   0  0  0  0  0  0  0  0  0  0  0  0
   -6.4574   -0.5993  -22.8548 N   0  0  0  0  0  0  0  0  0  0  0  0
   -7.8167   -0.9037  -22.2984 C   0  0  0  0  0  0  0  0  0  0  0  0
   -8.2899   -0.2122  -21.0542 O   0  0  0  0  0  0  0  0  0  0  0  0
   -7.8112   -1.8351  -25.8641 C   0  0  0  0  0  0  0  0  0  0  0  0
   -8.6973   -2.8310  -26.5518 C   0  0  0  0  0  0  0  0  0  0  0  0
   -8.6424   -4.2784  -26.1623 C   0  0  0  0  0  0  0  0  0  0  0  0
   -7.7015   -4.7300  -25.0849 C   0  0  0  0  0  0  0  0  0  0  0  0
   -6.8154   -3.7341  -24.3972 C   0  0  0  0  0  0  0  0  0  0  0  0
   -6.8703   -2.2866  -24.7868 C   0  0  0  0  0  0  0  0  0  0  0  0
   -7.1669    0.0821  -27.4948 C   0  0  0  0  0  0  0  0  0  0  0  0
   -7.8661   -0.3876  -26.2537 O   0  0  0  0  0  0  0  0  0  0  0  0
   -8.7028   -1.8996  -22.9861 C   0  0  0  0  0  0  0  0  0  0  0  0
  -10.1932   -1.7374  -22.9365 C   0  0  0  0  0  0  0  0  0  0  0  0
  -11.0594   -2.8884  -22.5184 C   0  0  0  0  0  0  0  0  0  0  0  0
  -12.5498   -2.7262  -22.4688 N   0  0  0  0  0  0  0  0  0  0  0  0
  -13.1740   -1.4130  -22.8373 C   0  0  0  0  0  0  0  0  0  0  0  0
  -12.3078   -0.2619  -23.2555 C   0  0  0  0  0  0  0  0  0  0  0  0
  -12.9320    1.0512  -23.6240 C   0  0  0  0  0  0  0  0  0  0  0  0
  -12.0658    2.2023  -24.0421 C   0  0  0  0  0  0  0  0  0  0  0  0
  -10.5755    2.0401  -24.0917 C   0  0  0  0  0  0  0  0  0  0  0  0
   -9.9512    0.7269  -23.7232 C   0  0  0  0  0  0  0  0  0  0  0  0
  -10.8174   -0.4241  -23.3051 C   0  0  0  0  0  0  0  0  0  0  0  0
 16 17  1  0  0  0
 17 10  1  0  0  0
 10 11  2  0  0  0
 11 12  1  0  0  0
 12 13  2  0  0  0
 13 14  1  0  0  0
 14 15  2  0  0  0
  1 15  1  0  0  0
  1  2  1  0  0  0
  2  3  1  0  0  0
  3  4  1  0  0  0
  3  5  1  0  0  0
  5  6  1  0  0  0
  6  7  1  0  0  0
  7  8  1  0  0  0
  8  9  2  0  0  0
  8 18  1  0  0  0
 18 19  1  0  0  0
 19 20  2  0  0  0
 20 21  1  0  0  0
 21 22  2  0  0  0
 22 23  1  0  0  0
 23 24  2  0  0  0
 24 25  1  0  0  0
 25 26  2  0  0  0
 26 27  1  0  0  0
 27 28  2  0  0  0
 15 10  1  0  0  0
  7  1  1  0  0  0
 28 19  1  0  0  0
 28 23  1  0  0  0
M  END
> <minimizedAffinity>
-5.84569

> <CNNscore>
0.3457648754

> <CNNaffinity>
5.3736691475

> <CNN_VS>
1.8580260277

> <CNNaffinity_variance>
0.2865103483

$$$$



 28 31  0  0  0  0  0  0  0  0999 V2000
   -7.0661   -3.6256  -23.0443 C   0  0  0  0  0  0  0  0  0  0  0  0
   -6.4069   -4.8366  -22.4537 C   0  0  0  0  0  0  0  0  0  0  0  0
   -6.5982   -6.1807  -23.0914 C   0  0  0  0  0  0  0  0  0  0  0  0
   -5.9390   -7.3917  -22.5007 C   0  0  0  0  0  0  0  0  0  0  0  0
   -7.4488   -6.3138  -24.3197 C   0  0  0  0  0  0  0  0  0  0  0  0
   -8.1081   -5.1028  -24.9103 C   0  0  0  0  0  0  0  0  0  0  0  0
   -7.9167   -3.7586  -24.2726 N   0  0  0  0  0  0  0  0  0  0  0  0
   -8.5759   -2.5476  -24.8632 C   0  0  0  0  0  0  0  0  0  0  0  0
   -9.4266   -2.6808  -26.0915 O   0  0  0  0  0  0  0  0  0  0  0  0
   -5.8302   -1.3429  -22.9340 C   0  0  0  0  0  0  0  0  0  0  0  0
   -5.6389    0.0012  -22.2962 C   0  0  0  0  0  0  0  0  0  0  0  0
   -6.4920    0.4068  -21.1310 C   0  0  0  0  0  0  0  0  0  0  0  0
   -7.5365   -0.5317  -20.6036 C   0  0  0  0  0  0  0  0  0  0  0  0
   -7.7278   -1.8758  -21.2413 C   0  0  0  0  0  0  0  0  0  0  0  0
   -6.8747   -2.2814  -22.4065 C   0  0  0  0  0  0  0  0  0  0  0  0
   -4.1781   -0.7167  -24.8388 C   0  0  0  0  0  0  0  0  0  0  0  0
   -4.9771   -1.7485  -24.0992 O   0  0  0  0  0  0  0  0  0  0  0  0
   -8.3846   -1.2035  -24.2255 C   0  0  0  0  0  0  0  0  0  0  0  0
   -9.5307   -0.2386  -24.1511 C   0  0  0  0  0  0  0  0  0  0  0  0
   -9.3423    1.1845  -24.5859 C   0  0  0  0  0  0  0  0  0  0  0  0
  -10.4884    2.1494  -24.5116 N   0  0  0  0  0  0  0  0  0  0  0  0
  -11.8228    1.6911  -24.0024 C   0  0  0  0  0  0  0  0  0  0  0  0
  -12.0112    0.2678  -23.5676 C   0  0  0  0  0  0  0  0  0  0  0  0
  -13.3456   -0.1905  -23.0585 C   0  0  0  0  0  0  0  0  0  0  0  0
  -13.5339   -1.6136  -22.6237 C   0  0  0  0  0  0  0  0  0  0  0  0
  -12.3879   -2.5785  -22.6981 C   0  0  0  0  0  0  0  0  0  0  0  0
  -11.0535   -2.1202  -23.2072 C   0  0  0  0  0  0  0  0  0  0  0  0
  -10.8651   -0.6970  -23.6420 C   0  0  0  0  0  0  0  0  0  0  0  0
 16 17  1  0  0  0
 17 10  1  0  0  0
 10 11  2  0  0  0
 11 12  1  0  0  0
 12 13  2  0  0  0
 13 14  1  0  0  0
 14 15  2  0  0  0
  1 15  1  0  0  0
  1  2  1  0  0  0
  2  3  1  0  0  0
  3  4  1  0  0  0
  3  5  1  0  0  0
  5  6  1  0  0  0
  6  7  1  0  0  0
  7  8  1  0  0  0
  8  9  2  0  0  0
  8 18  1  0  0  0
 18 19  1  0  0  0
 19 20  2  0  0  0
 20 21  1  0  0  0
 21 22  2  0  0  0
 22 23  1  0  0  0
 23 24  2  0  0  0
 24 25  1  0  0  0
 25 26  2  0  0  0
 26 27  1  0  0  0
 27 28  2  0  0  0
 15 10  1  0  0  0
  7  1  1  0  0  0
 28 19  1  0  0  0
 28 23  1  0  0  0
M  END
> <minimizedAffinity>
-6.32538

> <CNNscore>
0.3277346194

> <CNNaffinity>
5.7890048027

> <CNN_VS>
1.8972573280

> <CNNaffinity_variance>
0.1108268872

$$$$



 28 31  0  0  0  0  0  0  0  0999 V2000
   -9.1802   -1.0786  -23.9188 C   0  0  0  0  0  0  0  0  0  0  0  0
   -8.3297   -2.3045  -24.0726 C   0  0  0  0  0  0  0  0  0  0  0  0
   -8.9744   -3.6463  -24.2563 C   0  0  0  0  0  0  0  0  0  0  0  0
   -8.1238   -4.8723  -24.4101 C   0  0  0  0  0  0  0  0  0  0  0  0
  -10.4696   -3.7623  -24.2862 C   0  0  0  0  0  0  0  0  0  0  0  0
  -11.3202   -2.5364  -24.1324 C   0  0  0  0  0  0  0  0  0  0  0  0
  -10.6754   -1.1945  -23.9487 N   0  0  0  0  0  0  0  0  0  0  0  0
  -11.5260    0.0315  -23.7948 C   0  0  0  0  0  0  0  0  0  0  0  0
  -13.0212   -0.0845  -23.8247 O   0  0  0  0  0  0  0  0  0  0  0  0
   -8.1593    1.0849  -24.9323 C   0  0  0  0  0  0  0  0  0  0  0  0
   -7.5146    2.4267  -24.7486 C   0  0  0  0  0  0  0  0  0  0  0  0
   -7.2461    2.9470  -23.3675 C   0  0  0  0  0  0  0  0  0  0  0  0
   -7.6223    2.1255  -22.1703 C   0  0  0  0  0  0  0  0  0  0  0  0
   -8.2670    0.7836  -22.3540 C   0  0  0  0  0  0  0  0  0  0  0  0
   -8.5355    0.2634  -23.7351 C   0  0  0  0  0  0  0  0  0  0  0  0
   -7.3322   -0.1047  -27.0888 C   0  0  0  0  0  0  0  0  0  0  0  0
   -8.4278    0.5646  -26.3133 O   0  0  0  0  0  0  0  0  0  0  0  0
  -10.8813    1.3733  -23.6111 C   0  0  0  0  0  0  0  0  0  0  0  0
  -11.7316    2.5934  -23.4154 C   0  0  0  0  0  0  0  0  0  0  0  0
  -12.7118    2.6505  -22.2814 C   0  0  0  0  0  0  0  0  0  0  0  0
  -13.5621    3.8706  -22.0857 N   0  0  0  0  0  0  0  0  0  0  0  0
  -13.4323    5.0336  -23.0240 C   0  0  0  0  0  0  0  0  0  0  0  0
  -12.4520    4.9766  -24.1580 C   0  0  0  0  0  0  0  0  0  0  0  0
  -12.3222    6.1397  -25.0963 C   0  0  0  0  0  0  0  0  0  0  0  0
  -11.3420    6.0826  -26.2303 C   0  0  0  0  0  0  0  0  0  0  0  0
  -10.4917    4.8625  -26.4260 C   0  0  0  0  0  0  0  0  0  0  0  0
  -10.6216    3.6995  -25.4877 C   0  0  0  0  0  0  0  0  0  0  0  0
  -11.6017    3.7565  -24.3538 C   0  0  0  0  0  0  0  0  0  0  0  0
 16 17  1  0  0  0
 17 10  1  0  0  0
 10 11  2  0  0  0
 11 12  1  0  0  0
 12 13  2  0  0  0
 13 14  1  0  0  0
 14 15  2  0  0  0
  1 15  1  0  0  0
  1  2  1  0  0  0
  2  3  1  0  0  0
  3  4  1  0  0  0
  3  5  1  0  0  0
  5  6  1  0  0  0
  6  7  1  0  0  0
  7  8  1  0  0  0
  8  9  2  0  0  0
  8 18  1  0  0  0
 18 19  1  0  0  0
 19 20  2  0  0  0
 20 21  1  0  0  0
 21 22  2  0  0  0
 22 23  1  0  0  0
 23 24  2  0  0  0
 24 25  1  0  0  0
 25 26  2  0  0  0
 26 27  1  0  0  0
 27 28  2  0  0  0
 15 10  1  0  0  0
  7  1  1  0  0  0
 28 19  1  0  0  0
 28 23  1  0  0  0
M  END
> <minimizedAffinity>
-6.34263

> <CNNscore>
0.2782937586

> <CNNaffinity>
5.2407450676

> <CNN_VS>
1.4584666491

> <CNNaffinity_variance>
0.4573747516

$$$$



 28 31  0  0  0  0  0  0  0  0999 V2000
   -9.3663   -0.1170  -23.3203 C   0  0  0  0  0  0  0  0  0  0  0  0
  -10.7826    0.2596  -23.6399 C   0  0  0  0  0  0  0  0  0  0  0  0
  -11.8762   -0.7594  -23.5143 C   0  0  0  0  0  0  0  0  0  0  0  0
  -13.2925   -0.3828  -23.8338 C   0  0  0  0  0  0  0  0  0  0  0  0
  -11.5534   -2.1550  -23.0692 C   0  0  0  0  0  0  0  0  0  0  0  0
  -10.1370   -2.5316  -22.7497 C   0  0  0  0  0  0  0  0  0  0  0  0
   -9.0434   -1.5125  -22.8752 N   0  0  0  0  0  0  0  0  0  0  0  0
   -7.6271   -1.8891  -22.5557 C   0  0  0  0  0  0  0  0  0  0  0  0
   -7.3043   -3.2848  -22.1106 O   0  0  0  0  0  0  0  0  0  0  0  0
   -7.4683    0.9872  -24.7091 C   0  0  0  0  0  0  0  0  0  0  0  0
   -6.3748    2.0062  -24.8346 C   0  0  0  0  0  0  0  0  0  0  0  0
   -6.0857    2.9401  -23.6970 C   0  0  0  0  0  0  0  0  0  0  0  0
   -6.8901    2.8550  -22.4338 C   0  0  0  0  0  0  0  0  0  0  0  0
   -7.9836    1.8360  -22.3083 C   0  0  0  0  0  0  0  0  0  0  0  0
   -8.2727    0.9021  -23.4459 C   0  0  0  0  0  0  0  0  0  0  0  0
   -7.6979    0.5520  -27.2601 C   0  0  0  0  0  0  0  0  0  0  0  0
   -7.7574    0.0533  -25.8467 O   0  0  0  0  0  0  0  0  0  0  0  0
   -6.5335   -0.8701  -22.6813 C   0  0  0  0  0  0  0  0  0  0  0  0
   -5.8190   -0.3820  -21.4561 C   0  0  0  0  0  0  0  0  0  0  0  0
   -6.4510   -0.5426  -20.1053 C   0  0  0  0  0  0  0  0  0  0  0  0
   -5.7364   -0.0544  -18.8801 N   0  0  0  0  0  0  0  0  0  0  0  0
   -4.3899    0.5944  -19.0057 C   0  0  0  0  0  0  0  0  0  0  0  0
   -3.7578    0.7551  -20.3566 C   0  0  0  0  0  0  0  0  0  0  0  0
   -2.4113    1.4039  -20.4822 C   0  0  0  0  0  0  0  0  0  0  0  0
   -1.7793    1.5645  -21.8330 C   0  0  0  0  0  0  0  0  0  0  0  0
   -2.4938    1.0763  -23.0582 C   0  0  0  0  0  0  0  0  0  0  0  0
   -3.8404    0.4275  -22.9326 C   0  0  0  0  0  0  0  0  0  0  0  0
   -4.4724    0.2669  -21.5818 C   0  0  0  0  0  0  0  0  0  0  0  0
 16 17  1  0  0  0
 17 10  1  0  0  0
 10 11  2  0  0  0
 11 12  1  0  0  0
 12 13  2  0  0  0
 13 14  1  0  0  0
 14 15  2  0  0  0
  1 15  1  0  0  0
  1  2  1  0  0  0
  2  3  1  0  0  0
  3  4  1  0  0  0
  3  5  1  0  0  0
  5  6  1  0  0  0
  6  7  1  0  0  0
  7  8  1  0  0  0
  8  9  2  0  0  0
  8 18  1  0  0  0
 18 19  1  0  0  0
 19 20  2  0  0  0
 20 21  1  0  0  0
 21 22  2  0  0  0
 22 23  1  0  0  0
 23 24  2  0  0  0
 24 25  1  0  0  0
 25 26  2  0  0  0
 26 27  1  0  0  0
 27 28  2  0  0  0
 15 10  1  0  0  0
  7  1  1  0  0  0
 28 19  1  0  0  0
 28 23  1  0  0  0
M  END
> <minimizedAffinity>
-6.29480

> <CNNscore>
0.2734953165

> <CNNaffinity>
5.5426359177

> <CNN_VS>
1.5158849955

> <CNNaffinity_variance>
0.0569404140

$$$$



 28 31  0  0  0  0  0  0  0  0999 V2000
   -5.2743    1.6742  -21.8972 C   0  0  0  0  0  0  0  0  0  0  0  0
   -3.9464    2.3600  -21.7686 C   0  0  0  0  0  0  0  0  0  0  0  0
   -3.1015    2.1358  -20.5497 C   0  0  0  0  0  0  0  0  0  0  0  0
   -1.7736    2.8216  -20.4211 C   0  0  0  0  0  0  0  0  0  0  0  0
   -3.5843    1.2257  -19.4594 C   0  0  0  0  0  0  0  0  0  0  0  0
   -4.9121    0.5399  -19.5881 C   0  0  0  0  0  0  0  0  0  0  0  0
   -5.7571    0.7641  -20.8070 N   0  0  0  0  0  0  0  0  0  0  0  0
   -7.0849    0.0783  -20.9357 C   0  0  0  0  0  0  0  0  0  0  0  0
   -7.5678   -0.8318  -19.8454 O   0  0  0  0  0  0  0  0  0  0  0  0
   -7.0362    3.0836  -23.1854 C   0  0  0  0  0  0  0  0  0  0  0  0
   -7.8811    3.3078  -24.4043 C   0  0  0  0  0  0  0  0  0  0  0  0
   -7.8091    2.3470  -25.5540 C   0  0  0  0  0  0  0  0  0  0  0  0
   -6.8922    1.1619  -25.4847 C   0  0  0  0  0  0  0  0  0  0  0  0
   -6.0473    0.9377  -24.2658 C   0  0  0  0  0  0  0  0  0  0  0  0
   -6.1193    1.8985  -23.1162 C   0  0  0  0  0  0  0  0  0  0  0  0
   -7.3729    5.4989  -22.2894 C   0  0  0  0  0  0  0  0  0  0  0  0
   -7.1082    4.0444  -22.0358 O   0  0  0  0  0  0  0  0  0  0  0  0
   -7.9299    0.3026  -22.1545 C   0  0  0  0  0  0  0  0  0  0  0  0
   -9.0321   -0.6579  -22.4901 C   0  0  0  0  0  0  0  0  0  0  0  0
   -8.7805   -2.1357  -22.4393 C   0  0  0  0  0  0  0  0  0  0  0  0
   -9.8827   -3.0962  -22.7749 N   0  0  0  0  0  0  0  0  0  0  0  0
  -11.2365   -2.5789  -23.1613 C   0  0  0  0  0  0  0  0  0  0  0  0
  -11.4882   -1.1010  -23.2121 C   0  0  0  0  0  0  0  0  0  0  0  0
  -12.8421   -0.5836  -23.5986 C   0  0  0  0  0  0  0  0  0  0  0  0
  -13.0937    0.8942  -23.6494 C   0  0  0  0  0  0  0  0  0  0  0  0
  -11.9915    1.8547  -23.3138 C   0  0  0  0  0  0  0  0  0  0  0  0
  -10.6377    1.3374  -22.9274 C   0  0  0  0  0  0  0  0  0  0  0  0
  -10.3860   -0.1405  -22.8766 C   0  0  0  0  0  0  0  0  0  0  0  0
 16 17  1  0  0  0
 17 10  1  0  0  0
 10 11  2  0  0  0
 11 12  1  0  0  0
 12 13  2  0  0  0
 13 14  1  0  0  0
 14 15  2  0  0  0
  1 15  1  0  0  0
  1  2  1  0  0  0
  2  3  1  0  0  0
  3  4  1  0  0  0
  3  5  1  0  0  0
  5  6  1  0  0  0
  6  7  1  0  0  0
  7  8  1  0  0  0
  8  9  2  0  0  0
  8 18  1  0  0  0
 18 19  1  0  0  0
 19 20  2  0  0  0
 20 21  1  0  0  0
 21 22  2  0  0  0
 22 23  1  0  0  0
 23 24  2  0  0  0
 24 25  1  0  0  0
 25 26  2  0  0  0
 26 27  1  0  0  0
 27 28  2  0  0  0
 15 10  1  0  0  0
  7  1  1  0  0  0
 28 19  1  0  0  0
 28 23  1  0  0  0
M  END
> <minimizedAffinity>
-7.01262

> <CNNscore>
0.2694842219

> <CNNaffinity>
5.3374276161

> <CNN_VS>
1.4383525848

> <CNNaffinity_variance>
0.2105750293

$$$$
