


 24 27  0  0  0  0  0  0  0  0999 V2000
   -8.7983   -3.7476  -23.8723 C   0  0  0  0  0  0  0  0  0  0  0  0
   -9.1639   -4.8344  -24.8394 C   0  0  0  0  0  0  0  0  0  0  0  0
  -10.3598   -5.0310  -25.7231 C   0  0  0  0  0  0  0  0  0  0  0  0
  -10.1731   -6.3143  -26.4771 C   0  0  0  0  0  0  0  0  0  0  0  0
   -8.8617   -6.9107  -26.0593 S   0  0  0  0  0  0  0  0  0  0  0  0
   -8.2379   -5.9961  -25.0471 C   0  0  0  0  0  0  0  0  0  0  0  0
   -6.9465   -6.0710  -24.2878 C   0  0  0  0  0  0  0  0  0  0  0  0
   -6.5810   -4.9842  -23.3208 C   0  0  0  0  0  0  0  0  0  0  0  0
   -7.5068   -3.8225  -23.1130 N   0  0  0  0  0  0  0  0  0  0  0  0
   -7.1413   -2.7357  -22.1459 C   0  0  0  0  0  0  0  0  0  0  0  0
   -8.0672   -1.5740  -21.9381 O   0  0  0  0  0  0  0  0  0  0  0  0
  -11.0762   -2.8045  -23.0527 C   0  0  0  0  0  0  0  0  0  0  0  0
   -9.7242   -2.5859  -23.6645 C   0  0  0  0  0  0  0  0  0  0  0  0
   -5.8499   -2.8106  -21.3866 C   0  0  0  0  0  0  0  0  0  0  0  0
   -5.5363   -1.7857  -20.3372 C   0  0  0  0  0  0  0  0  0  0  0  0
   -5.9815   -2.0016  -18.9212 C   0  0  0  0  0  0  0  0  0  0  0  0
   -5.6679   -0.9767  -17.8719 N   0  0  0  0  0  0  0  0  0  0  0  0
   -4.9091    0.2642  -18.2385 C   0  0  0  0  0  0  0  0  0  0  0  0
   -4.4639    0.4802  -19.6546 C   0  0  0  0  0  0  0  0  0  0  0  0
   -3.7052    1.7211  -20.0213 C   0  0  0  0  0  0  0  0  0  0  0  0
   -3.2600    1.9370  -21.4373 C   0  0  0  0  0  0  0  0  0  0  0  0
   -3.5736    0.9121  -22.4866 C   0  0  0  0  0  0  0  0  0  0  0  0
   -4.3324   -0.3288  -22.1200 C   0  0  0  0  0  0  0  0  0  0  0  0
   -4.7775   -0.5447  -20.7040 C   0  0  0  0  0  0  0  0  0  0  0  0
 12 13  1  0  0  0
  1 13  1  0  0  0
  1  2  1  0  0  0
  2  3  1  0  0  0
  3  4  2  0  0  0
  4  5  1  0  0  0
  5  6  1  0  0  0
  6  7  1  0  0  0
  7  8  1  0  0  0
  8  9  1  0  0  0
  9 10  1  0  0  0
 10 11  2  0  0  0
 10 14  1  0  0  0
 14 15  1  0  0  0
 15 16  2  0  0  0
 16 17  1  0  0  0
 17 18  2  0  0  0
 18 19  1  0  0  0
 19 20  2  0  0  0
 20 21  1  0  0  0
 21 22  2  0  0  0
 22 23  1  0  0  0
 23 24  2  0  0  0
  9  1  1  0  0  0
 24 15  1  0  0  0
  6  2  2  0  0  0
 24 19  1  0  0  0
M  END
> <minimizedAffinity>
-7.64431

> <CNNscore>
0.7625182867

> <CNNaffinity>
5.5418124199

> <CNN_VS>
4.2257332802

> <CNNaffinity_variance>
0.3165987730

$$$$



 24 27  0  0  0  0  0  0  0  0999 V2000
   -7.3413   -4.9845  -23.4128 C   0  0  0  0  0  0  0  0  0  0  0  0
   -8.1991   -5.6636  -24.4390 C   0  0  0  0  0  0  0  0  0  0  0  0
   -8.2490   -7.0814  -24.9261 C   0  0  0  0  0  0  0  0  0  0  0  0
   -9.3194   -7.1745  -25.9727 C   0  0  0  0  0  0  0  0  0  0  0  0
   -9.9311   -5.8142  -26.1325 S   0  0  0  0  0  0  0  0  0  0  0  0
   -9.2387   -4.8804  -25.1846 C   0  0  0  0  0  0  0  0  0  0  0  0
   -9.4205   -3.4182  -24.9040 C   0  0  0  0  0  0  0  0  0  0  0  0
   -8.5628   -2.7390  -23.8778 C   0  0  0  0  0  0  0  0  0  0  0  0
   -7.5232   -3.5221  -23.1323 N   0  0  0  0  0  0  0  0  0  0  0  0
   -6.6654   -2.8430  -22.1061 C   0  0  0  0  0  0  0  0  0  0  0  0
   -5.6257   -3.6262  -21.3605 O   0  0  0  0  0  0  0  0  0  0  0  0
   -6.6725   -7.0560  -21.9947 C   0  0  0  0  0  0  0  0  0  0  0  0
   -6.3017   -5.7676  -22.6673 C   0  0  0  0  0  0  0  0  0  0  0  0
   -6.8472   -1.3808  -21.8255 C   0  0  0  0  0  0  0  0  0  0  0  0
   -6.2357   -0.7707  -20.5992 C   0  0  0  0  0  0  0  0  0  0  0  0
   -6.8828   -0.9687  -19.2606 C   0  0  0  0  0  0  0  0  0  0  0  0
   -6.2713   -0.3585  -18.0343 N   0  0  0  0  0  0  0  0  0  0  0  0
   -5.0126    0.4495  -18.1466 C   0  0  0  0  0  0  0  0  0  0  0  0
   -4.3654    0.6476  -19.4853 C   0  0  0  0  0  0  0  0  0  0  0  0
   -3.1067    1.4557  -19.5976 C   0  0  0  0  0  0  0  0  0  0  0  0
   -2.4596    1.6536  -20.9363 C   0  0  0  0  0  0  0  0  0  0  0  0
   -3.0711    1.0435  -22.1626 C   0  0  0  0  0  0  0  0  0  0  0  0
   -4.3298    0.2354  -22.0502 C   0  0  0  0  0  0  0  0  0  0  0  0
   -4.9769    0.0375  -20.7116 C   0  0  0  0  0  0  0  0  0  0  0  0
 12 13  1  0  0  0
  1 13  1  0  0  0
  1  2  1  0  0  0
  2  3  1  0  0  0
  3  4  2  0  0  0
  4  5  1  0  0  0
  5  6  1  0  0  0
  6  7  1  0  0  0
  7  8  1  0  0  0
  8  9  1  0  0  0
  9 10  1  0  0  0
 10 11  2  0  0  0
 10 14  1  0  0  0
 14 15  1  0  0  0
 15 16  2  0  0  0
 16 17  1  0  0  0
 17 18  2  0  0  0
 18 19  1  0  0  0
 19 20  2  0  0  0
 20 21  1  0  0  0
 21 22  2  0  0  0
 22 23  1  0  0  0
 23 24  2  0  0  0
  9  1  1  0  0  0
 24 15  1  0  0  0
  6  2  2  0  0  0
 24 19  1  0  0  0
M  END
> <minimizedAffinity>
-7.56701

> <CNNscore>
0.7461658120

> <CNNaffinity>
5.6209278107

> <CNN_VS>
4.1941442490

> <CNNaffinity_variance>
0.2638401091

$$$$



 24 27  0  0  0  0  0  0  0  0999 V2000
  -10.3125   -1.3810  -22.9770 C   0  0  0  0  0  0  0  0  0  0  0  0
  -11.2890   -0.2736  -23.2417 C   0  0  0  0  0  0  0  0  0  0  0  0
  -12.7601   -0.2813  -23.5347 C   0  0  0  0  0  0  0  0  0  0  0  0
  -13.2046    1.1402  -23.7132 C   0  0  0  0  0  0  0  0  0  0  0  0
  -12.0082    2.0264  -23.5304 S   0  0  0  0  0  0  0  0  0  0  0  0
  -10.8243    1.1526  -23.2390 C   0  0  0  0  0  0  0  0  0  0  0  0
   -9.3832    1.4714  -22.9716 C   0  0  0  0  0  0  0  0  0  0  0  0
   -8.4067    0.3640  -22.7068 C   0  0  0  0  0  0  0  0  0  0  0  0
   -8.8713   -1.0622  -22.7095 N   0  0  0  0  0  0  0  0  0  0  0  0
   -7.8949   -2.1697  -22.4448 C   0  0  0  0  0  0  0  0  0  0  0  0
   -8.3596   -3.5959  -22.4475 O   0  0  0  0  0  0  0  0  0  0  0  0
  -10.9735   -3.5296  -24.2795 C   0  0  0  0  0  0  0  0  0  0  0  0
  -10.7772   -2.8072  -22.9796 C   0  0  0  0  0  0  0  0  0  0  0  0
   -6.4538   -1.8509  -22.1773 C   0  0  0  0  0  0  0  0  0  0  0  0
   -6.0619   -1.1612  -20.9042 C   0  0  0  0  0  0  0  0  0  0  0  0
   -6.8459   -1.4027  -19.6485 C   0  0  0  0  0  0  0  0  0  0  0  0
   -6.4540   -0.7130  -18.3754 N   0  0  0  0  0  0  0  0  0  0  0  0
   -5.2782    0.2182  -18.3581 C   0  0  0  0  0  0  0  0  0  0  0  0
   -4.4942    0.4597  -19.6139 C   0  0  0  0  0  0  0  0  0  0  0  0
   -3.3184    1.3909  -19.5966 C   0  0  0  0  0  0  0  0  0  0  0  0
   -2.5345    1.6324  -20.8524 C   0  0  0  0  0  0  0  0  0  0  0  0
   -2.9263    0.9427  -22.1255 C   0  0  0  0  0  0  0  0  0  0  0  0
   -4.1021    0.0115  -22.1428 C   0  0  0  0  0  0  0  0  0  0  0  0
   -4.8861   -0.2300  -20.8870 C   0  0  0  0  0  0  0  0  0  0  0  0
 12 13  1  0  0  0
  1 13  1  0  0  0
  1  2  1  0  0  0
  2  3  1  0  0  0
  3  4  2  0  0  0
  4  5  1  0  0  0
  5  6  1  0  0  0
  6  7  1  0  0  0
  7  8  1  0  0  0
  8  9  1  0  0  0
  9 10  1  0  0  0
 10 11  2  0  0  0
 10 14  1  0  0  0
 14 15  1  0  0  0
 15 16  2  0  0  0
 16 17  1  0  0  0
 17 18  2  0  0  0
 18 19  1  0  0  0
 19 20  2  0  0  0
 20 21  1  0  0  0
 21 22  2  0  0  0
 22 23  1  0  0  0
 23 24  2  0  0  0
  9  1  1  0  0  0
 24 15  1  0  0  0
  6  2  2  0  0  0
 24 19  1  0  0  0
M  END
> <minimizedAffinity>
-7.58569

> <CNNscore>
0.5846624970

> <CNNaffinity>
5.5533056259

> <CNN_VS>
3.2468094826

> <CNNaffinity_variance>
0.2396636754

$$$$



 24 27  0  0  0  0  0  0  0  0999 V2000
   -7.9813   -5.1019  -25.4956 C   0  0  0  0  0  0  0  0  0  0  0  0
   -6.8472   -6.0821  -25.4414 C   0  0  0  0  0  0  0  0  0  0  0  0
   -6.2200   -6.9505  -26.4914 C   0  0  0  0  0  0  0  0  0  0  0  0
   -5.1118   -7.7296  -25.8474 C   0  0  0  0  0  0  0  0  0  0  0  0
   -5.0540   -7.3427  -24.3993 S   0  0  0  0  0  0  0  0  0  0  0  0
   -6.1265   -6.3244  -24.1483 C   0  0  0  0  0  0  0  0  0  0  0  0
   -6.5400   -5.5867  -22.9095 C   0  0  0  0  0  0  0  0  0  0  0  0
   -7.6742   -4.6065  -22.9638 C   0  0  0  0  0  0  0  0  0  0  0  0
   -8.3948   -4.3641  -24.2567 N   0  0  0  0  0  0  0  0  0  0  0  0
   -9.5290   -3.3839  -24.3109 C   0  0  0  0  0  0  0  0  0  0  0  0
  -10.2496   -3.1415  -25.6040 O   0  0  0  0  0  0  0  0  0  0  0  0
   -9.5671   -5.9338  -27.3778 C   0  0  0  0  0  0  0  0  0  0  0  0
   -8.7020   -4.8595  -26.7886 C   0  0  0  0  0  0  0  0  0  0  0  0
   -9.9425   -2.6461  -23.0722 C   0  0  0  0  0  0  0  0  0  0  0  0
  -11.2810   -1.9718  -23.0124 C   0  0  0  0  0  0  0  0  0  0  0  0
  -12.4997   -2.7567  -22.6270 C   0  0  0  0  0  0  0  0  0  0  0  0
  -13.8383   -2.0824  -22.5673 N   0  0  0  0  0  0  0  0  0  0  0  0
  -13.9581   -0.6231  -22.8930 C   0  0  0  0  0  0  0  0  0  0  0  0
  -12.7394    0.1619  -23.2785 C   0  0  0  0  0  0  0  0  0  0  0  0
  -12.8592    1.6211  -23.6042 C   0  0  0  0  0  0  0  0  0  0  0  0
  -11.6405    2.4061  -23.9897 C   0  0  0  0  0  0  0  0  0  0  0  0
  -10.3020    1.7317  -24.0494 C   0  0  0  0  0  0  0  0  0  0  0  0
  -10.1822    0.2725  -23.7236 C   0  0  0  0  0  0  0  0  0  0  0  0
  -11.4009   -0.5125  -23.3382 C   0  0  0  0  0  0  0  0  0  0  0  0
 12 13  1  0  0  0
  1 13  1  0  0  0
  1  2  1  0  0  0
  2  3  1  0  0  0
  3  4  2  0  0  0
  4  5  1  0  0  0
  5  6  1  0  0  0
  6  7  1  0  0  0
  7  8  1  0  0  0
  8  9  1  0  0  0
  9 10  1  0  0  0
 10 11  2  0  0  0
 10 14  1  0  0  0
 14 15  1  0  0  0
 15 16  2  0  0  0
 16 17  1  0  0  0
 17 18  2  0  0  0
 18 19  1  0  0  0
 19 20  2  0  0  0
 20 21  1  0  0  0
 21 22  2  0  0  0
 22 23  1  0  0  0
 23 24  2  0  0  0
  9  1  1  0  0  0
 24 15  1  0  0  0
  6  2  2  0  0  0
 24 19  1  0  0  0
M  END
> <minimizedAffinity>
-6.73582

> <CNNscore>
0.5655135512

> <CNNaffinity>
5.4232683182

> <CNN_VS>
3.0669317245

> <CNNaffinity_variance>
0.2659365833

$$$$



 24 27  0  0  0  0  0  0  0  0999 V2000
   -8.9527   -2.7261  -23.0536 C   0  0  0  0  0  0  0  0  0  0  0  0
   -9.2911   -3.7349  -24.1109 C   0  0  0  0  0  0  0  0  0  0  0  0
  -10.4909   -3.8965  -24.9966 C   0  0  0  0  0  0  0  0  0  0  0  0
  -10.2673   -5.0990  -25.8649 C   0  0  0  0  0  0  0  0  0  0  0  0
   -8.9294   -5.6806  -25.5159 S   0  0  0  0  0  0  0  0  0  0  0  0
   -8.3260   -4.8375  -24.4318 C   0  0  0  0  0  0  0  0  0  0  0  0
   -7.0226   -4.9314  -23.6955 C   0  0  0  0  0  0  0  0  0  0  0  0
   -6.6842   -3.9226  -22.6382 C   0  0  0  0  0  0  0  0  0  0  0  0
   -7.6491   -2.8200  -22.3172 N   0  0  0  0  0  0  0  0  0  0  0  0
   -7.3107   -1.8113  -21.2599 C   0  0  0  0  0  0  0  0  0  0  0  0
   -8.2757   -0.7086  -20.9390 O   0  0  0  0  0  0  0  0  0  0  0  0
  -11.3911   -1.9022  -22.7004 C   0  0  0  0  0  0  0  0  0  0  0  0
   -9.9176   -1.6235  -22.7326 C   0  0  0  0  0  0  0  0  0  0  0  0
   -6.0073   -1.9051  -20.5236 C   0  0  0  0  0  0  0  0  0  0  0  0
   -5.1550   -0.6832  -20.3487 C   0  0  0  0  0  0  0  0  0  0  0  0
   -5.0171   -0.0525  -18.9949 C   0  0  0  0  0  0  0  0  0  0  0  0
   -4.1648    1.1694  -18.8200 N   0  0  0  0  0  0  0  0  0  0  0  0
   -3.4504    1.7605  -19.9990 C   0  0  0  0  0  0  0  0  0  0  0  0
   -3.5882    1.1298  -21.3530 C   0  0  0  0  0  0  0  0  0  0  0  0
   -2.8738    1.7209  -22.5320 C   0  0  0  0  0  0  0  0  0  0  0  0
   -3.0117    1.0901  -23.8859 C   0  0  0  0  0  0  0  0  0  0  0  0
   -3.8640   -0.1318  -24.0608 C   0  0  0  0  0  0  0  0  0  0  0  0
   -4.5784   -0.7229  -22.8818 C   0  0  0  0  0  0  0  0  0  0  0  0
   -4.4405   -0.0921  -21.5279 C   0  0  0  0  0  0  0  0  0  0  0  0
 12 13  1  0  0  0
  1 13  1  0  0  0
  1  2  1  0  0  0
  2  3  1  0  0  0
  3  4  2  0  0  0
  4  5  1  0  0  0
  5  6  1  0  0  0
  6  7  1  0  0  0
  7  8  1  0  0  0
  8  9  1  0  0  0
  9 10  1  0  0  0
 10 11  2  0  0  0
 10 14  1  0  0  0
 14 15  1  0  0  0
 15 16  2  0  0  0
 16 17  1  0  0  0
 17 18  2  0  0  0
 18 19  1  0  0  0
 19 20  2  0  0  0
 20 21  1  0  0  0
 21 22  2  0  0  0
 22 23  1  0  0  0
 23 24  2  0  0  0
  9  1  1  0  0  0
 24 15  1  0  0  0
  6  2  2  0  0  0
 24 19  1  0  0  0
M  END
> <minimizedAffinity>
-6.71421

> <CNNscore>
0.4976390600

> <CNNaffinity>
5.3176984787

> <CNN_VS>
2.6462943554

> <CNNaffinity_variance>
0.2193399966

$$$$



 24 27  0  0  0  0  0  0  0  0999 V2000
  -10.4184    0.1447  -23.3609 C   0  0  0  0  0  0  0  0  0  0  0  0
  -11.7534   -0.5243  -23.2178 C   0  0  0  0  0  0  0  0  0  0  0  0
  -13.1385   -0.0920  -23.5980 C   0  0  0  0  0  0  0  0  0  0  0  0
  -14.0888   -1.1847  -23.2069 C   0  0  0  0  0  0  0  0  0  0  0  0
  -13.2909   -2.2923  -22.5850 S   0  0  0  0  0  0  0  0  0  0  0  0
  -11.8475   -1.8841  -22.5917 C   0  0  0  0  0  0  0  0  0  0  0  0
  -10.6068   -2.5750  -22.1087 C   0  0  0  0  0  0  0  0  0  0  0  0
   -9.2719   -1.9060  -22.2518 C   0  0  0  0  0  0  0  0  0  0  0  0
   -9.1777   -0.5462  -22.8778 N   0  0  0  0  0  0  0  0  0  0  0  0
   -7.8428    0.1228  -23.0209 C   0  0  0  0  0  0  0  0  0  0  0  0
   -7.7486    1.4826  -23.6470 O   0  0  0  0  0  0  0  0  0  0  0  0
  -11.3043    2.5746  -23.6070 C   0  0  0  0  0  0  0  0  0  0  0  0
  -10.3242    1.5045  -23.9869 C   0  0  0  0  0  0  0  0  0  0  0  0
   -6.6021   -0.5681  -22.5379 C   0  0  0  0  0  0  0  0  0  0  0  0
   -6.0584   -0.2658  -21.1729 C   0  0  0  0  0  0  0  0  0  0  0  0
   -6.7948   -0.7319  -19.9521 C   0  0  0  0  0  0  0  0  0  0  0  0
   -6.2511   -0.4296  -18.5872 N   0  0  0  0  0  0  0  0  0  0  0  0
   -4.9710    0.3388  -18.4431 C   0  0  0  0  0  0  0  0  0  0  0  0
   -4.2345    0.8050  -19.6639 C   0  0  0  0  0  0  0  0  0  0  0  0
   -2.9544    1.5734  -19.5198 C   0  0  0  0  0  0  0  0  0  0  0  0
   -2.2180    2.0395  -20.7406 C   0  0  0  0  0  0  0  0  0  0  0  0
   -2.7617    1.7373  -22.1055 C   0  0  0  0  0  0  0  0  0  0  0  0
   -4.0418    0.9688  -22.2496 C   0  0  0  0  0  0  0  0  0  0  0  0
   -4.7782    0.5027  -21.0288 C   0  0  0  0  0  0  0  0  0  0  0  0
 12 13  1  0  0  0
  1 13  1  0  0  0
  1  2  1  0  0  0
  2  3  1  0  0  0
  3  4  2  0  0  0
  4  5  1  0  0  0
  5  6  1  0  0  0
  6  7  1  0  0  0
  7  8  1  0  0  0
  8  9  1  0  0  0
  9 10  1  0  0  0
 10 11  2  0  0  0
 10 14  1  0  0  0
 14 15  1  0  0  0
 15 16  2  0  0  0
 16 17  1  0  0  0
 17 18  2  0  0  0
 18 19  1  0  0  0
 19 20  2  0  0  0
 20 21  1  0  0  0
 21 22  2  0  0  0
 22 23  1  0  0  0
 23 24  2  0  0  0
  9  1  1  0  0  0
 24 15  1  0  0  0
  6  2  2  0  0  0
 24 19  1  0  0  0
M  END
> <minimizedAffinity>
-6.36119

> <CNNscore>
0.4949550033

> <CNNaffinity>
5.5354270935

> <CNN_VS>
2.7397873402

> <CNNaffinity_variance>
0.1262672395

$$$$



 24 27  0  0  0  0  0  0  0  0999 V2000
   -6.1631    1.1151  -21.9316 C   0  0  0  0  0  0  0  0  0  0  0  0
   -5.6677    0.6982  -20.5786 C   0  0  0  0  0  0  0  0  0  0  0  0
   -4.5244    1.1804  -19.7358 C   0  0  0  0  0  0  0  0  0  0  0  0
   -4.5162    0.3829  -18.4655 C   0  0  0  0  0  0  0  0  0  0  0  0
   -5.6545   -0.5923  -18.5231 S   0  0  0  0  0  0  0  0  0  0  0  0
   -6.3662   -0.3975  -19.8290 C   0  0  0  0  0  0  0  0  0  0  0  0
   -7.5600   -1.0761  -20.4326 C   0  0  0  0  0  0  0  0  0  0  0  0
   -8.0553   -0.6592  -21.7856 C   0  0  0  0  0  0  0  0  0  0  0  0
   -7.3569    0.4364  -22.5352 N   0  0  0  0  0  0  0  0  0  0  0  0
   -7.8523    0.8534  -23.8882 C   0  0  0  0  0  0  0  0  0  0  0  0
   -7.1538    1.9490  -24.6378 O   0  0  0  0  0  0  0  0  0  0  0  0
   -5.6137    3.6359  -22.2378 C   0  0  0  0  0  0  0  0  0  0  0  0
   -5.4646    2.2107  -22.6812 C   0  0  0  0  0  0  0  0  0  0  0  0
   -9.0460    0.1747  -24.4918 C   0  0  0  0  0  0  0  0  0  0  0  0
  -10.4294    0.6214  -24.1218 C   0  0  0  0  0  0  0  0  0  0  0  0
  -10.8135    2.0648  -24.2600 C   0  0  0  0  0  0  0  0  0  0  0  0
  -12.1968    2.5115  -23.8901 N   0  0  0  0  0  0  0  0  0  0  0  0
  -13.1961    1.5148  -23.3820 C   0  0  0  0  0  0  0  0  0  0  0  0
  -12.8119    0.0714  -23.2438 C   0  0  0  0  0  0  0  0  0  0  0  0
  -13.8112   -0.9252  -22.7357 C   0  0  0  0  0  0  0  0  0  0  0  0
  -13.4270   -2.3686  -22.5975 C   0  0  0  0  0  0  0  0  0  0  0  0
  -12.0437   -2.8153  -22.9674 C   0  0  0  0  0  0  0  0  0  0  0  0
  -11.0445   -1.8187  -23.4755 C   0  0  0  0  0  0  0  0  0  0  0  0
  -11.4286   -0.3753  -23.6137 C   0  0  0  0  0  0  0  0  0  0  0  0
 12 13  1  0  0  0
  1 13  1  0  0  0
  1  2  1  0  0  0
  2  3  1  0  0  0
  3  4  2  0  0  0
  4  5  1  0  0  0
  5  6  1  0  0  0
  6  7  1  0  0  0
  7  8  1  0  0  0
  8  9  1  0  0  0
  9 10  1  0  0  0
 10 11  2  0  0  0
 10 14  1  0  0  0
 14 15  1  0  0  0
 15 16  2  0  0  0
 16 17  1  0  0  0
 17 18  2  0  0  0
 18 19  1  0  0  0
 19 20  2  0  0  0
 20 21  1  0  0  0
 21 22  2  0  0  0
 22 23  1  0  0  0
 23 24  2  0  0  0
  9  1  1  0  0  0
 24 15  1  0  0  0
  6  2  2  0  0  0
 24 19  1  0  0  0
M  END
> <minimizedAffinity>
-6.48311

> <CNNscore>
0.4526419342

> <CNNaffinity>
5.2208251953

> <CNN_VS>
2.3631644249

> <CNNaffinity_variance>
0.1838549674

$$$$



 24 27  0  0  0  0  0  0  0  0999 V2000
   -6.0499    0.2880  -20.8521 C   0  0  0  0  0  0  0  0  0  0  0  0
   -4.7907    1.0739  -20.6356 C   0  0  0  0  0  0  0  0  0  0  0  0
   -3.8331    1.1377  -19.4828 C   0  0  0  0  0  0  0  0  0  0  0  0
   -2.7458    2.1086  -19.8366 C   0  0  0  0  0  0  0  0  0  0  0  0
   -3.0315    2.6449  -21.2081 S   0  0  0  0  0  0  0  0  0  0  0  0
   -4.2953    2.0054  -21.7019 C   0  0  0  0  0  0  0  0  0  0  0  0
   -5.0590    2.1510  -22.9846 C   0  0  0  0  0  0  0  0  0  0  0  0
   -6.3181    1.3651  -23.2012 C   0  0  0  0  0  0  0  0  0  0  0  0
   -6.8136    0.4336  -22.1350 N   0  0  0  0  0  0  0  0  0  0  0  0
   -8.0727   -0.3523  -22.3515 C   0  0  0  0  0  0  0  0  0  0  0  0
   -8.5681   -1.2838  -21.2852 O   0  0  0  0  0  0  0  0  0  0  0  0
   -5.6857   -0.9439  -18.5940 C   0  0  0  0  0  0  0  0  0  0  0  0
   -6.5453   -0.6435  -19.7859 C   0  0  0  0  0  0  0  0  0  0  0  0
   -8.8364   -0.2068  -23.6343 C   0  0  0  0  0  0  0  0  0  0  0  0
  -10.1991    0.4201  -23.6289 C   0  0  0  0  0  0  0  0  0  0  0  0
  -10.3558    1.8770  -23.9498 C   0  0  0  0  0  0  0  0  0  0  0  0
  -11.7185    2.5039  -23.9443 N   0  0  0  0  0  0  0  0  0  0  0  0
  -12.9245    1.6739  -23.6180 C   0  0  0  0  0  0  0  0  0  0  0  0
  -12.7679    0.2170  -23.2971 C   0  0  0  0  0  0  0  0  0  0  0  0
  -13.9740   -0.6129  -22.9708 C   0  0  0  0  0  0  0  0  0  0  0  0
  -13.8174   -2.0698  -22.6499 C   0  0  0  0  0  0  0  0  0  0  0  0
  -12.4547   -2.6967  -22.6553 C   0  0  0  0  0  0  0  0  0  0  0  0
  -11.2486   -1.8667  -22.9816 C   0  0  0  0  0  0  0  0  0  0  0  0
  -11.4052   -0.4099  -23.3025 C   0  0  0  0  0  0  0  0  0  0  0  0
 12 13  1  0  0  0
  1 13  1  0  0  0
  1  2  1  0  0  0
  2  3  1  0  0  0
  3  4  2  0  0  0
  4  5  1  0  0  0
  5  6  1  0  0  0
  6  7  1  0  0  0
  7  8  1  0  0  0
  8  9  1  0  0  0
  9 10  1  0  0  0
 10 11  2  0  0  0
 10 14  1  0  0  0
 14 15  1  0  0  0
 15 16  2  0  0  0
 16 17  1  0  0  0
 17 18  2  0  0  0
 18 19  1  0  0  0
 19 20  2  0  0  0
 20 21  1  0  0  0
 21 22  2  0  0  0
 22 23  1  0  0  0
 23 24  2  0  0  0
  9  1  1  0  0  0
 24 15  1  0  0  0
  6  2  2  0  0  0
 24 19  1  0  0  0
M  END
> <minimizedAffinity>
-6.74867

> <CNNscore>
0.4212906361

> <CNNaffinity>
5.0557594299

> <CNN_VS>
2.1299440861

> <CNNaffinity_variance>
0.1330753565

$$$$



 24 27  0  0  0  0  0  0  0  0999 V2000
  -11.4644    0.1144  -23.4479 C   0  0  0  0  0  0  0  0  0  0  0  0
  -11.7665    1.5776  -23.5810 C   0  0  0  0  0  0  0  0  0  0  0  0
  -12.9898    2.3834  -23.2581 C   0  0  0  0  0  0  0  0  0  0  0  0
  -12.7068    3.8150  -23.6052 C   0  0  0  0  0  0  0  0  0  0  0  0
  -11.3086    3.8940  -24.1425 S   0  0  0  0  0  0  0  0  0  0  0  0
  -10.7274    2.5112  -24.1276 C   0  0  0  0  0  0  0  0  0  0  0  0
   -9.3863    1.9816  -24.5410 C   0  0  0  0  0  0  0  0  0  0  0  0
   -9.0843    0.5184  -24.4079 C   0  0  0  0  0  0  0  0  0  0  0  0
  -10.1233   -0.4152  -23.8614 N   0  0  0  0  0  0  0  0  0  0  0  0
   -9.8212   -1.8785  -23.7283 C   0  0  0  0  0  0  0  0  0  0  0  0
  -10.8603   -2.8121  -23.1817 O   0  0  0  0  0  0  0  0  0  0  0  0
  -13.8931   -0.8081  -23.4659 C   0  0  0  0  0  0  0  0  0  0  0  0
  -12.5034   -0.8192  -22.9013 C   0  0  0  0  0  0  0  0  0  0  0  0
   -8.4801   -2.4081  -24.1417 C   0  0  0  0  0  0  0  0  0  0  0  0
   -8.2059   -3.8817  -24.0855 C   0  0  0  0  0  0  0  0  0  0  0  0
   -7.5584   -4.4782  -22.8711 C   0  0  0  0  0  0  0  0  0  0  0  0
   -7.2841   -5.9519  -22.8148 N   0  0  0  0  0  0  0  0  0  0  0  0
   -7.6574   -6.8290  -23.9729 C   0  0  0  0  0  0  0  0  0  0  0  0
   -8.3049   -6.2325  -25.1874 C   0  0  0  0  0  0  0  0  0  0  0  0
   -8.6782   -7.1096  -26.3455 C   0  0  0  0  0  0  0  0  0  0  0  0
   -9.3257   -6.5131  -27.5599 C   0  0  0  0  0  0  0  0  0  0  0  0
   -9.6000   -5.0394  -27.6162 C   0  0  0  0  0  0  0  0  0  0  0  0
   -9.2267   -4.1623  -26.4581 C   0  0  0  0  0  0  0  0  0  0  0  0
   -8.5792   -4.7588  -25.2437 C   0  0  0  0  0  0  0  0  0  0  0  0
 12 13  1  0  0  0
  1 13  1  0  0  0
  1  2  1  0  0  0
  2  3  1  0  0  0
  3  4  2  0  0  0
  4  5  1  0  0  0
  5  6  1  0  0  0
  6  7  1  0  0  0
  7  8  1  0  0  0
  8  9  1  0  0  0
  9 10  1  0  0  0
 10 11  2  0  0  0
 10 14  1  0  0  0
 14 15  1  0  0  0
 15 16  2  0  0  0
 16 17  1  0  0  0
 17 18  2  0  0  0
 18 19  1  0  0  0
 19 20  2  0  0  0
 20 21  1  0  0  0
 21 22  2  0  0  0
 22 23  1  0  0  0
 23 24  2  0  0  0
  9  1  1  0  0  0
 24 15  1  0  0  0
  6  2  2  0  0  0
 24 19  1  0  0  0
M  END
> <minimizedAffinity>
-6.23001

> <CNNscore>
0.4026473463

> <CNNaffinity>
5.4358911514

> <CNN_VS>
2.1887471676

> <CNNaffinity_variance>
0.1359882057

$$$$
