


 40 45  0  0  0  0  0  0  0  0999 V2000
   -7.3371   -1.3040  -23.9163 N   0  0  0  0  0  0  0  0  0  0  0  0
   -7.7273    0.1394  -24.0363 C   0  0  0  0  0  0  0  0  0  0  0  0
   -9.1622    0.5445  -23.8728 C   0  0  0  0  0  0  0  0  0  0  0  0
  -10.5498    1.0972  -23.7346 C   0  0  0  0  0  0  0  0  0  0  0  0
  -11.6847    0.7203  -23.5194 O   0  0  0  0  0  0  0  0  0  0  0  0
  -10.4785    2.5829  -23.9285 N   0  0  0  0  0  0  0  0  0  0  0  0
   -9.0467    2.9485  -24.1864 C   0  0  0  0  0  0  0  0  0  0  0  0
   -8.2333    1.6887  -24.1521 C   0  0  0  0  0  0  0  0  0  0  0  0
  -10.2071   -0.4938  -23.5894 C   0  0  0  0  0  0  0  0  0  0  0  0
  -11.6420   -0.0887  -23.4260 C   0  0  0  0  0  0  0  0  0  0  0  0
  -12.6868   -1.1269  -23.1426 C   0  0  0  0  0  0  0  0  0  0  0  0
  -14.1219   -0.7218  -22.9791 Cl  0  0  0  0  0  0  0  0  0  0  0  0
  -12.2967   -2.5703  -23.0226 C   0  0  0  0  0  0  0  0  0  0  0  0
  -10.8617   -2.9754  -23.1860 C   0  0  0  0  0  0  0  0  0  0  0  0
   -9.8169   -1.9372  -23.4694 C   0  0  0  0  0  0  0  0  0  0  0  0
   -8.3819   -2.3423  -23.6329 C   0  0  0  0  0  0  0  0  0  0  0  0
   -7.9917   -3.7857  -23.5129 O   0  0  0  0  0  0  0  0  0  0  0  0
  -11.6357    3.5358  -23.8739 C   0  0  0  0  0  0  0  0  0  0  0  0
  -12.4490    3.6568  -22.6193 C   0  0  0  0  0  0  0  0  0  0  0  0
  -13.6062    4.6096  -22.5647 N   0  0  0  0  0  0  0  0  0  0  0  0
  -13.9500    5.4414  -23.7647 C   0  0  0  0  0  0  0  0  0  0  0  0
  -13.1367    5.3204  -25.0192 C   0  0  0  0  0  0  0  0  0  0  0  0
  -13.4805    6.1523  -26.2192 C   0  0  0  0  0  0  0  0  0  0  0  0
  -12.6671    6.0312  -27.4736 C   0  0  0  0  0  0  0  0  0  0  0  0
  -11.5099    5.0784  -27.5282 C   0  0  0  0  0  0  0  0  0  0  0  0
  -11.1661    4.2466  -26.3283 C   0  0  0  0  0  0  0  0  0  0  0  0
  -11.9795    4.3676  -25.0738 C   0  0  0  0  0  0  0  0  0  0  0  0
   -5.9021   -1.7091  -24.0798 C   0  0  0  0  0  0  0  0  0  0  0  0
   -4.7857   -4.7766  -26.3368 C   0  0  0  0  0  0  0  0  0  0  0  0
   -5.2077   -3.9772  -25.1398 N   0  0  0  0  0  0  0  0  0  0  0  0
   -5.4801   -2.5085  -25.2768 C   0  0  0  0  0  0  0  0  0  0  0  0
   -5.3307   -1.8393  -26.6109 O   0  0  0  0  0  0  0  0  0  0  0  0
   -5.3058   -4.4164  -24.2642 H   0  0  0  0  0  0  0  0  0  0  0  0
   -6.7511    1.5903  -24.3604 C   0  0  0  0  0  0  0  0  0  0  0  0
   -5.8496    2.6807  -23.8620 C   0  0  0  0  0  0  0  0  0  0  0  0
   -5.1225    2.5164  -22.5604 C   0  0  0  0  0  0  0  0  0  0  0  0
   -4.2210    3.6068  -22.0621 C   0  0  0  0  0  0  0  0  0  0  0  0
   -4.0468    4.8615  -22.8654 C   0  0  0  0  0  0  0  0  0  0  0  0
   -4.7739    5.0259  -24.1670 C   0  0  0  0  0  0  0  0  0  0  0  0
   -5.6754    3.9355  -24.6654 C   0  0  0  0  0  0  0  0  0  0  0  0
 29 30  1  0  0  0
 30 31  1  0  0  0
 31 32  2  0  0  0
 31 28  1  0  0  0
 28  1  1  0  0  0
  1  2  1  0  0  0
  3  2  1  0  0  0
  3  4  1  0  0  0
  4  5  2  0  0  0
  4  6  1  0  0  0
  6 18  1  0  0  0
 18 19  2  0  0  0
 19 20  1  0  0  0
 20 21  2  0  0  0
 21 22  1  0  0  0
 22 23  2  0  0  0
 23 24  1  0  0  0
 24 25  2  0  0  0
 25 26  1  0  0  0
 26 27  2  0  0  0
  6  7  1  0  0  0
  7  8  1  0  0  0
  8 34  1  0  0  0
 34 35  1  0  0  0
 35 36  2  0  0  0
 36 37  1  0  0  0
 37 38  2  0  0  0
 38 39  1  0  0  0
 39 40  2  0  0  0
  3  9  1  0  0  0
  9 10  2  0  0  0
 10 11  1  0  0  0
 11 12  1  0  0  0
 11 13  2  0  0  0
 13 14  1  0  0  0
 14 15  2  0  0  0
 15 16  1  0  0  0
 16 17  2  0  0  0
 16  1  1  0  0  0
  8  3  1  0  0  0
 40 35  1  0  0  0
 15  9  1  0  0  0
 27 18  1  0  0  0
 27 22  1  0  0  0
 30 33  1  0  0  0
M  END
> <minimizedAffinity>
-7.22559

> <CNNscore>
0.7108423710

> <CNNaffinity>
6.9980974197

> <CNN_VS>
4.9745440483

> <CNNaffinity_variance>
0.1158482432

$$$$



 40 45  0  0  0  0  0  0  0  0999 V2000
   -6.9769   -0.8281  -22.9618 N   0  0  0  0  0  0  0  0  0  0  0  0
   -7.4543    0.5746  -23.1949 C   0  0  0  0  0  0  0  0  0  0  0  0
   -8.9232    0.8590  -23.3015 C   0  0  0  0  0  0  0  0  0  0  0  0
  -10.3530    1.2939  -23.4293 C   0  0  0  0  0  0  0  0  0  0  0  0
  -11.4740    0.8256  -23.4070 O   0  0  0  0  0  0  0  0  0  0  0  0
  -10.3681    2.7768  -23.6546 N   0  0  0  0  0  0  0  0  0  0  0  0
   -8.9476    3.2584  -23.6660 C   0  0  0  0  0  0  0  0  0  0  0  0
   -8.0546    2.0731  -23.4478 C   0  0  0  0  0  0  0  0  0  0  0  0
   -9.9148   -0.2595  -23.1751 C   0  0  0  0  0  0  0  0  0  0  0  0
  -11.3837    0.0249  -23.2818 C   0  0  0  0  0  0  0  0  0  0  0  0
  -12.3752   -1.0936  -23.1554 C   0  0  0  0  0  0  0  0  0  0  0  0
  -13.8442   -0.8092  -23.2621 Cl  0  0  0  0  0  0  0  0  0  0  0  0
  -11.8978   -2.4963  -22.9223 C   0  0  0  0  0  0  0  0  0  0  0  0
  -10.4289   -2.7807  -22.8156 C   0  0  0  0  0  0  0  0  0  0  0  0
   -9.4374   -1.6623  -22.9420 C   0  0  0  0  0  0  0  0  0  0  0  0
   -7.9684   -1.9466  -22.8353 C   0  0  0  0  0  0  0  0  0  0  0  0
   -7.4910   -3.3493  -22.6022 O   0  0  0  0  0  0  0  0  0  0  0  0
  -11.5893    3.6286  -23.8364 C   0  0  0  0  0  0  0  0  0  0  0  0
  -12.5409    3.8290  -22.6943 C   0  0  0  0  0  0  0  0  0  0  0  0
  -13.7621    4.6808  -22.8762 N   0  0  0  0  0  0  0  0  0  0  0  0
  -14.0318    5.3322  -24.2002 C   0  0  0  0  0  0  0  0  0  0  0  0
  -13.0802    5.1317  -25.3423 C   0  0  0  0  0  0  0  0  0  0  0  0
  -13.3499    5.7832  -26.6664 C   0  0  0  0  0  0  0  0  0  0  0  0
  -12.3983    5.5827  -27.8084 C   0  0  0  0  0  0  0  0  0  0  0  0
  -11.1771    4.7309  -27.6265 C   0  0  0  0  0  0  0  0  0  0  0  0
  -10.9074    4.0796  -26.3025 C   0  0  0  0  0  0  0  0  0  0  0  0
  -11.8590    4.2800  -25.1604 C   0  0  0  0  0  0  0  0  0  0  0  0
   -5.5079   -1.1125  -22.8551 C   0  0  0  0  0  0  0  0  0  0  0  0
   -2.8342    1.1468  -20.9849 C   0  0  0  0  0  0  0  0  0  0  0  0
   -3.6412    0.5219  -22.0842 N   0  0  0  0  0  0  0  0  0  0  0  0
   -4.7009   -0.4876  -21.7558 C   0  0  0  0  0  0  0  0  0  0  0  0
   -4.9538   -0.8722  -20.3281 O   0  0  0  0  0  0  0  0  0  0  0  0
   -3.4752    0.7743  -23.0212 H   0  0  0  0  0  0  0  0  0  0  0  0
   -6.5560    2.0976  -23.3866 C   0  0  0  0  0  0  0  0  0  0  0  0
   -5.8164    3.3798  -23.6290 C   0  0  0  0  0  0  0  0  0  0  0  0
   -5.2330    3.6651  -24.9812 C   0  0  0  0  0  0  0  0  0  0  0  0
   -4.4933    4.9473  -25.2235 C   0  0  0  0  0  0  0  0  0  0  0  0
   -4.3370    5.9442  -24.1137 C   0  0  0  0  0  0  0  0  0  0  0  0
   -4.9203    5.6591  -22.7616 C   0  0  0  0  0  0  0  0  0  0  0  0
   -5.6600    4.3768  -22.5191 C   0  0  0  0  0  0  0  0  0  0  0  0
 29 30  1  0  0  0
 30 31  1  0  0  0
 31 32  2  0  0  0
 31 28  1  0  0  0
 28  1  1  0  0  0
  1  2  1  0  0  0
  3  2  1  0  0  0
  3  4  1  0  0  0
  4  5  2  0  0  0
  4  6  1  0  0  0
  6 18  1  0  0  0
 18 19  2  0  0  0
 19 20  1  0  0  0
 20 21  2  0  0  0
 21 22  1  0  0  0
 22 23  2  0  0  0
 23 24  1  0  0  0
 24 25  2  0  0  0
 25 26  1  0  0  0
 26 27  2  0  0  0
  6  7  1  0  0  0
  7  8  1  0  0  0
  8 34  1  0  0  0
 34 35  1  0  0  0
 35 36  2  0  0  0
 36 37  1  0  0  0
 37 38  2  0  0  0
 38 39  1  0  0  0
 39 40  2  0  0  0
  3  9  1  0  0  0
  9 10  2  0  0  0
 10 11  1  0  0  0
 11 12  1  0  0  0
 11 13  2  0  0  0
 13 14  1  0  0  0
 14 15  2  0  0  0
 15 16  1  0  0  0
 16 17  2  0  0  0
 16  1  1  0  0  0
  8  3  1  0  0  0
 40 35  1  0  0  0
 15  9  1  0  0  0
 27 18  1  0  0  0
 27 22  1  0  0  0
 30 33  1  0  0  0
M  END
> <minimizedAffinity>
-7.70682

> <CNNscore>
0.5648094416

> <CNNaffinity>
6.8462767601

> <CNN_VS>
3.8668417931

> <CNNaffinity_variance>
0.1699959040

$$$$



 40 45  0  0  0  0  0  0  0  0999 V2000
   -6.5115    1.1068  -22.5127 N   0  0  0  0  0  0  0  0  0  0  0  0
   -5.2577    1.8296  -22.9071 C   0  0  0  0  0  0  0  0  0  0  0  0
   -5.1820    2.5332  -24.2296 C   0  0  0  0  0  0  0  0  0  0  0  0
   -4.9599    3.2776  -25.5128 C   0  0  0  0  0  0  0  0  0  0  0  0
   -5.5450    3.5561  -26.5406 O   0  0  0  0  0  0  0  0  0  0  0  0
   -3.5708    3.8430  -25.4863 N   0  0  0  0  0  0  0  0  0  0  0  0
   -2.9343    3.4479  -24.1868 C   0  0  0  0  0  0  0  0  0  0  0  0
   -3.9300    2.6384  -23.4101 C   0  0  0  0  0  0  0  0  0  0  0  0
   -6.3601    2.5139  -25.1579 C   0  0  0  0  0  0  0  0  0  0  0  0
   -6.2844    3.2175  -26.4805 C   0  0  0  0  0  0  0  0  0  0  0  0
   -7.4626    3.1983  -27.4087 C   0  0  0  0  0  0  0  0  0  0  0  0
   -7.3869    3.9018  -28.7314 Cl  0  0  0  0  0  0  0  0  0  0  0  0
   -8.7164    2.4755  -27.0143 C   0  0  0  0  0  0  0  0  0  0  0  0
   -8.7921    1.7719  -25.6918 C   0  0  0  0  0  0  0  0  0  0  0  0
   -7.6140    1.7912  -24.7636 C   0  0  0  0  0  0  0  0  0  0  0  0
   -7.6896    1.0876  -23.4409 C   0  0  0  0  0  0  0  0  0  0  0  0
   -8.9434    0.3648  -23.0465 O   0  0  0  0  0  0  0  0  0  0  0  0
   -2.9306    4.6600  -26.5692 C   0  0  0  0  0  0  0  0  0  0  0  0
   -3.6226    5.8826  -27.0948 C   0  0  0  0  0  0  0  0  0  0  0  0
   -2.9824    6.6996  -28.1777 N   0  0  0  0  0  0  0  0  0  0  0  0
   -1.6502    6.2939  -28.7350 C   0  0  0  0  0  0  0  0  0  0  0  0
   -0.9581    5.0713  -28.2093 C   0  0  0  0  0  0  0  0  0  0  0  0
    0.3742    4.6656  -28.7667 C   0  0  0  0  0  0  0  0  0  0  0  0
    1.0661    3.4429  -28.2410 C   0  0  0  0  0  0  0  0  0  0  0  0
    0.4259    2.6260  -27.1581 C   0  0  0  0  0  0  0  0  0  0  0  0
   -0.9063    3.0316  -26.6008 C   0  0  0  0  0  0  0  0  0  0  0  0
   -1.5983    4.2543  -27.1264 C   0  0  0  0  0  0  0  0  0  0  0  0
   -6.5871    0.4033  -21.1900 C   0  0  0  0  0  0  0  0  0  0  0  0
   -5.4011   -3.0332  -19.5982 C   0  0  0  0  0  0  0  0  0  0  0  0
   -5.8593   -1.6099  -19.7179 N   0  0  0  0  0  0  0  0  0  0  0  0
   -6.1289   -1.0200  -21.0704 C   0  0  0  0  0  0  0  0  0  0  0  0
   -5.9404   -1.8534  -22.3033 O   0  0  0  0  0  0  0  0  0  0  0  0
   -5.9831   -1.0630  -18.9087 H   0  0  0  0  0  0  0  0  0  0  0  0
   -3.7121    2.0393  -22.0523 C   0  0  0  0  0  0  0  0  0  0  0  0
   -2.3203    1.8866  -21.5145 C   0  0  0  0  0  0  0  0  0  0  0  0
   -1.9732    2.4394  -20.1640 C   0  0  0  0  0  0  0  0  0  0  0  0
   -0.5813    2.2867  -19.6262 C   0  0  0  0  0  0  0  0  0  0  0  0
    0.4635    1.5812  -20.4389 C   0  0  0  0  0  0  0  0  0  0  0  0
    0.1166    1.0283  -21.7894 C   0  0  0  0  0  0  0  0  0  0  0  0
   -1.2754    1.1810  -22.3273 C   0  0  0  0  0  0  0  0  0  0  0  0
 29 30  1  0  0  0
 30 31  1  0  0  0
 31 32  2  0  0  0
 31 28  1  0  0  0
 28  1  1  0  0  0
  1  2  1  0  0  0
  3  2  1  0  0  0
  3  4  1  0  0  0
  4  5  2  0  0  0
  4  6  1  0  0  0
  6 18  1  0  0  0
 18 19  2  0  0  0
 19 20  1  0  0  0
 20 21  2  0  0  0
 21 22  1  0  0  0
 22 23  2  0  0  0
 23 24  1  0  0  0
 24 25  2  0  0  0
 25 26  1  0  0  0
 26 27  2  0  0  0
  6  7  1  0  0  0
  7  8  1  0  0  0
  8 34  1  0  0  0
 34 35  1  0  0  0
 35 36  2  0  0  0
 36 37  1  0  0  0
 37 38  2  0  0  0
 38 39  1  0  0  0
 39 40  2  0  0  0
  3  9  1  0  0  0
  9 10  2  0  0  0
 10 11  1  0  0  0
 11 12  1  0  0  0
 11 13  2  0  0  0
 13 14  1  0  0  0
 14 15  2  0  0  0
 15 16  1  0  0  0
 16 17  2  0  0  0
 16  1  1  0  0  0
  8  3  1  0  0  0
 40 35  1  0  0  0
 15  9  1  0  0  0
 27 18  1  0  0  0
 27 22  1  0  0  0
 30 33  1  0  0  0
M  END
> <minimizedAffinity>
-3.93277

> <CNNscore>
0.4986146092

> <CNNaffinity>
6.6924962997

> <CNN_VS>
3.3369765282

> <CNNaffinity_variance>
1.9739656448

$$$$



 40 45  0  0  0  0  0  0  0  0999 V2000
   -7.6006   -1.9142  -23.1365 N   0  0  0  0  0  0  0  0  0  0  0  0
   -7.5637   -0.5511  -23.7615 C   0  0  0  0  0  0  0  0  0  0  0  0
   -8.8407    0.1974  -24.0044 C   0  0  0  0  0  0  0  0  0  0  0  0
  -10.0291    1.0612  -24.3067 C   0  0  0  0  0  0  0  0  0  0  0  0
  -11.2399    1.0468  -24.2064 O   0  0  0  0  0  0  0  0  0  0  0  0
   -9.5318    2.3337  -24.9260 N   0  0  0  0  0  0  0  0  0  0  0  0
   -8.0360    2.2564  -25.0064 C   0  0  0  0  0  0  0  0  0  0  0  0
   -7.6088    0.9361  -24.4368 C   0  0  0  0  0  0  0  0  0  0  0  0
  -10.1546   -0.4171  -23.6222 C   0  0  0  0  0  0  0  0  0  0  0  0
  -11.4316    0.3314  -23.8651 C   0  0  0  0  0  0  0  0  0  0  0  0
  -12.7454   -0.2831  -23.4829 C   0  0  0  0  0  0  0  0  0  0  0  0
  -14.0225    0.4654  -23.7258 Cl  0  0  0  0  0  0  0  0  0  0  0  0
  -12.7823   -1.6462  -22.8579 C   0  0  0  0  0  0  0  0  0  0  0  0
  -11.5053   -2.3948  -22.6151 C   0  0  0  0  0  0  0  0  0  0  0  0
  -10.1915   -1.7802  -22.9972 C   0  0  0  0  0  0  0  0  0  0  0  0
   -8.9144   -2.5288  -22.7544 C   0  0  0  0  0  0  0  0  0  0  0  0
   -8.9513   -3.8918  -22.1294 O   0  0  0  0  0  0  0  0  0  0  0  0
  -10.3812    3.4819  -25.3843 C   0  0  0  0  0  0  0  0  0  0  0  0
  -10.1769    4.0678  -26.7500 C   0  0  0  0  0  0  0  0  0  0  0  0
  -11.0263    5.2160  -27.2083 N   0  0  0  0  0  0  0  0  0  0  0  0
  -12.0801    5.7784  -26.3010 C   0  0  0  0  0  0  0  0  0  0  0  0
  -12.2844    5.1925  -24.9353 C   0  0  0  0  0  0  0  0  0  0  0  0
  -13.3383    5.7549  -24.0280 C   0  0  0  0  0  0  0  0  0  0  0  0
  -13.5426    5.1690  -22.6624 C   0  0  0  0  0  0  0  0  0  0  0  0
  -12.6932    4.0208  -22.2040 C   0  0  0  0  0  0  0  0  0  0  0  0
  -11.6394    3.4584  -23.1113 C   0  0  0  0  0  0  0  0  0  0  0  0
  -11.4350    4.0443  -24.4770 C   0  0  0  0  0  0  0  0  0  0  0  0
   -6.3235   -2.6627  -22.8937 C   0  0  0  0  0  0  0  0  0  0  0  0
   -5.3939   -1.9619  -19.0997 C   0  0  0  0  0  0  0  0  0  0  0  0
   -5.8839   -1.7497  -20.5014 N   0  0  0  0  0  0  0  0  0  0  0  0
   -5.8336   -2.8749  -21.4919 C   0  0  0  0  0  0  0  0  0  0  0  0
   -5.2932   -4.2125  -21.0808 O   0  0  0  0  0  0  0  0  0  0  0  0
   -6.2386   -0.8718  -20.7713 H   0  0  0  0  0  0  0  0  0  0  0  0
   -6.1976    0.4413  -24.3202 C   0  0  0  0  0  0  0  0  0  0  0  0
   -5.2715    1.0475  -23.3080 C   0  0  0  0  0  0  0  0  0  0  0  0
   -3.9415    0.4111  -23.0321 C   0  0  0  0  0  0  0  0  0  0  0  0
   -3.0154    1.0174  -22.0198 C   0  0  0  0  0  0  0  0  0  0  0  0
   -3.4193    2.2602  -21.2834 C   0  0  0  0  0  0  0  0  0  0  0  0
   -4.7492    2.8967  -21.5591 C   0  0  0  0  0  0  0  0  0  0  0  0
   -5.6754    2.2904  -22.5714 C   0  0  0  0  0  0  0  0  0  0  0  0
 29 30  1  0  0  0
 30 31  1  0  0  0
 31 32  2  0  0  0
 31 28  1  0  0  0
 28  1  1  0  0  0
  1  2  1  0  0  0
  3  2  1  0  0  0
  3  4  1  0  0  0
  4  5  2  0  0  0
  4  6  1  0  0  0
  6 18  1  0  0  0
 18 19  2  0  0  0
 19 20  1  0  0  0
 20 21  2  0  0  0
 21 22  1  0  0  0
 22 23  2  0  0  0
 23 24  1  0  0  0
 24 25  2  0  0  0
 25 26  1  0  0  0
 26 27  2  0  0  0
  6  7  1  0  0  0
  7  8  1  0  0  0
  8 34  1  0  0  0
 34 35  1  0  0  0
 35 36  2  0  0  0
 36 37  1  0  0  0
 37 38  2  0  0  0
 38 39  1  0  0  0
 39 40  2  0  0  0
  3  9  1  0  0  0
  9 10  2  0  0  0
 10 11  1  0  0  0
 11 12  1  0  0  0
 11 13  2  0  0  0
 13 14  1  0  0  0
 14 15  2  0  0  0
 15 16  1  0  0  0
 16 17  2  0  0  0
 16  1  1  0  0  0
  8  3  1  0  0  0
 40 35  1  0  0  0
 15  9  1  0  0  0
 27 18  1  0  0  0
 27 22  1  0  0  0
 30 33  1  0  0  0
M  END
> <minimizedAffinity>
-7.32168

> <CNNscore>
0.4533441365

> <CNNaffinity>
6.7520685196

> <CNN_VS>
3.0610105991

> <CNNaffinity_variance>
0.1997884065

$$$$



 40 45  0  0  0  0  0  0  0  0999 V2000
   -7.1737   -0.9614  -21.6114 N   0  0  0  0  0  0  0  0  0  0  0  0
   -7.2268    0.3609  -22.3176 C   0  0  0  0  0  0  0  0  0  0  0  0
   -8.4779    0.7805  -23.0307 C   0  0  0  0  0  0  0  0  0  0  0  0
   -9.6531    1.3322  -23.7821 C   0  0  0  0  0  0  0  0  0  0  0  0
  -10.7927    1.0322  -24.0782 O   0  0  0  0  0  0  0  0  0  0  0  0
   -9.2668    2.6759  -24.3253 N   0  0  0  0  0  0  0  0  0  0  0  0
   -7.8527    2.9548  -23.9096 C   0  0  0  0  0  0  0  0  0  0  0  0
   -7.3653    1.7834  -23.1095 C   0  0  0  0  0  0  0  0  0  0  0  0
   -9.6760   -0.1221  -23.0376 C   0  0  0  0  0  0  0  0  0  0  0  0
  -10.9271    0.2975  -23.7507 C   0  0  0  0  0  0  0  0  0  0  0  0
  -12.1251   -0.6051  -23.7576 C   0  0  0  0  0  0  0  0  0  0  0  0
  -13.3763   -0.1855  -24.4708 Cl  0  0  0  0  0  0  0  0  0  0  0  0
  -12.0719   -1.9274  -23.0514 C   0  0  0  0  0  0  0  0  0  0  0  0
  -10.8208   -2.3471  -22.3383 C   0  0  0  0  0  0  0  0  0  0  0  0
   -9.6228   -1.4444  -22.3314 C   0  0  0  0  0  0  0  0  0  0  0  0
   -8.3716   -1.8641  -21.6183 C   0  0  0  0  0  0  0  0  0  0  0  0
   -8.3185   -3.1864  -20.9121 O   0  0  0  0  0  0  0  0  0  0  0  0
  -10.1409    3.5817  -25.1410 C   0  0  0  0  0  0  0  0  0  0  0  0
   -9.8351    3.8130  -26.5912 C   0  0  0  0  0  0  0  0  0  0  0  0
  -10.7092    4.7189  -27.4068 N   0  0  0  0  0  0  0  0  0  0  0  0
  -11.8892    5.3934  -26.7723 C   0  0  0  0  0  0  0  0  0  0  0  0
  -12.1951    5.1621  -25.3221 C   0  0  0  0  0  0  0  0  0  0  0  0
  -13.3751    5.8367  -24.6876 C   0  0  0  0  0  0  0  0  0  0  0  0
  -13.6809    5.6053  -23.2374 C   0  0  0  0  0  0  0  0  0  0  0  0
  -12.8067    4.6995  -22.4218 C   0  0  0  0  0  0  0  0  0  0  0  0
  -11.6267    4.0250  -23.0563 C   0  0  0  0  0  0  0  0  0  0  0  0
  -11.3209    4.2563  -24.5065 C   0  0  0  0  0  0  0  0  0  0  0  0
   -5.9225   -1.3811  -20.8983 C   0  0  0  0  0  0  0  0  0  0  0  0
   -5.4342   -5.2182  -21.7859 C   0  0  0  0  0  0  0  0  0  0  0  0
   -5.7648   -3.7619  -21.9263 N   0  0  0  0  0  0  0  0  0  0  0  0
   -5.5918   -2.8374  -20.7578 C   0  0  0  0  0  0  0  0  0  0  0  0
   -5.0881   -3.3693  -19.4488 O   0  0  0  0  0  0  0  0  0  0  0  0
   -6.0954   -3.4128  -22.7854 H   0  0  0  0  0  0  0  0  0  0  0  0
   -6.0040    1.6400  -22.4959 C   0  0  0  0  0  0  0  0  0  0  0  0
   -5.0465    2.7943  -22.5170 C   0  0  0  0  0  0  0  0  0  0  0  0
   -3.7924    2.7437  -21.6954 C   0  0  0  0  0  0  0  0  0  0  0  0
   -2.8349    3.8980  -21.7165 C   0  0  0  0  0  0  0  0  0  0  0  0
   -3.1313    5.1031  -22.5592 C   0  0  0  0  0  0  0  0  0  0  0  0
   -4.3853    5.1538  -23.3807 C   0  0  0  0  0  0  0  0  0  0  0  0
   -5.3429    3.9994  -23.3596 C   0  0  0  0  0  0  0  0  0  0  0  0
 29 30  1  0  0  0
 30 31  1  0  0  0
 31 32  2  0  0  0
 31 28  1  0  0  0
 28  1  1  0  0  0
  1  2  1  0  0  0
  3  2  1  0  0  0
  3  4  1  0  0  0
  4  5  2  0  0  0
  4  6  1  0  0  0
  6 18  1  0  0  0
 18 19  2  0  0  0
 19 20  1  0  0  0
 20 21  2  0  0  0
 21 22  1  0  0  0
 22 23  2  0  0  0
 23 24  1  0  0  0
 24 25  2  0  0  0
 25 26  1  0  0  0
 26 27  2  0  0  0
  6  7  1  0  0  0
  7  8  1  0  0  0
  8 34  1  0  0  0
 34 35  1  0  0  0
 35 36  2  0  0  0
 36 37  1  0  0  0
 37 38  2  0  0  0
 38 39  1  0  0  0
 39 40  2  0  0  0
  3  9  1  0  0  0
  9 10  2  0  0  0
 10 11  1  0  0  0
 11 12  1  0  0  0
 11 13  2  0  0  0
 13 14  1  0  0  0
 14 15  2  0  0  0
 15 16  1  0  0  0
 16 17  2  0  0  0
 16  1  1  0  0  0
  8  3  1  0  0  0
 40 35  1  0  0  0
 15  9  1  0  0  0
 27 18  1  0  0  0
 27 22  1  0  0  0
 30 33  1  0  0  0
M  END
> <minimizedAffinity>
-7.27464

> <CNNscore>
0.3614685237

> <CNNaffinity>
6.6055974960

> <CNN_VS>
2.3877155781

> <CNNaffinity_variance>
0.0960024595

$$$$



 40 45  0  0  0  0  0  0  0  0999 V2000
  -11.6330    3.9207  -24.0893 N   0  0  0  0  0  0  0  0  0  0  0  0
  -10.2446    3.3599  -23.9997 C   0  0  0  0  0  0  0  0  0  0  0  0
  -10.0421    1.8987  -23.7285 C   0  0  0  0  0  0  0  0  0  0  0  0
   -9.6853    0.4659  -23.4642 C   0  0  0  0  0  0  0  0  0  0  0  0
  -10.2224   -0.6043  -23.2579 O   0  0  0  0  0  0  0  0  0  0  0  0
   -8.1895    0.3539  -23.4598 N   0  0  0  0  0  0  0  0  0  0  0  0
   -7.6218    1.7174  -23.7214 C   0  0  0  0  0  0  0  0  0  0  0  0
   -8.7668    2.6721  -23.8874 C   0  0  0  0  0  0  0  0  0  0  0  0
  -11.2279    0.9981  -23.5467 C   0  0  0  0  0  0  0  0  0  0  0  0
  -11.0253   -0.4631  -23.2755 C   0  0  0  0  0  0  0  0  0  0  0  0
  -12.2111   -1.3636  -23.0937 C   0  0  0  0  0  0  0  0  0  0  0  0
  -12.0086   -2.8249  -22.8224 Cl  0  0  0  0  0  0  0  0  0  0  0  0
  -13.5995   -0.8028  -23.1833 C   0  0  0  0  0  0  0  0  0  0  0  0
  -13.8020    0.6585  -23.4546 C   0  0  0  0  0  0  0  0  0  0  0  0
  -12.6162    1.5589  -23.6363 C   0  0  0  0  0  0  0  0  0  0  0  0
  -12.8187    3.0203  -23.9076 C   0  0  0  0  0  0  0  0  0  0  0  0
  -14.2071    3.5811  -23.9972 O   0  0  0  0  0  0  0  0  0  0  0  0
   -7.4000   -0.9014  -23.2337 C   0  0  0  0  0  0  0  0  0  0  0  0
   -7.1521   -1.8468  -24.3715 C   0  0  0  0  0  0  0  0  0  0  0  0
   -6.3626   -3.1020  -24.1453 N   0  0  0  0  0  0  0  0  0  0  0  0
   -5.8210   -3.4118  -22.7813 C   0  0  0  0  0  0  0  0  0  0  0  0
   -6.0689   -2.4663  -21.6434 C   0  0  0  0  0  0  0  0  0  0  0  0
   -5.5272   -2.7761  -20.2793 C   0  0  0  0  0  0  0  0  0  0  0  0
   -5.7751   -1.8306  -19.1415 C   0  0  0  0  0  0  0  0  0  0  0  0
   -6.5646   -0.5754  -19.3677 C   0  0  0  0  0  0  0  0  0  0  0  0
   -7.1062   -0.2656  -20.7317 C   0  0  0  0  0  0  0  0  0  0  0  0
   -6.8584   -1.2111  -21.8696 C   0  0  0  0  0  0  0  0  0  0  0  0
  -11.8355    5.3821  -24.3606 C   0  0  0  0  0  0  0  0  0  0  0  0
  -13.9950    6.4490  -27.5147 C   0  0  0  0  0  0  0  0  0  0  0  0
  -13.6356    5.9853  -26.1342 N   0  0  0  0  0  0  0  0  0  0  0  0
  -12.1948    5.8458  -25.7411 C   0  0  0  0  0  0  0  0  0  0  0  0
  -11.1132    6.1701  -26.7286 O   0  0  0  0  0  0  0  0  0  0  0  0
  -14.3455    5.7724  -25.4860 H   0  0  0  0  0  0  0  0  0  0  0  0
   -8.6558    4.1423  -24.1638 C   0  0  0  0  0  0  0  0  0  0  0  0
   -7.4656    4.9105  -23.6709 C   0  0  0  0  0  0  0  0  0  0  0  0
   -6.1370    4.7516  -24.3489 C   0  0  0  0  0  0  0  0  0  0  0  0
   -4.9468    5.5199  -23.8559 C   0  0  0  0  0  0  0  0  0  0  0  0
   -5.0851    6.4469  -22.6848 C   0  0  0  0  0  0  0  0  0  0  0  0
   -6.4135    6.6058  -22.0067 C   0  0  0  0  0  0  0  0  0  0  0  0
   -7.6039    5.8376  -22.4997 C   0  0  0  0  0  0  0  0  0  0  0  0
 29 30  1  0  0  0
 30 31  1  0  0  0
 31 32  2  0  0  0
 31 28  1  0  0  0
 28  1  1  0  0  0
  1  2  1  0  0  0
  3  2  1  0  0  0
  3  4  1  0  0  0
  4  5  2  0  0  0
  4  6  1  0  0  0
  6 18  1  0  0  0
 18 19  2  0  0  0
 19 20  1  0  0  0
 20 21  2  0  0  0
 21 22  1  0  0  0
 22 23  2  0  0  0
 23 24  1  0  0  0
 24 25  2  0  0  0
 25 26  1  0  0  0
 26 27  2  0  0  0
  6  7  1  0  0  0
  7  8  1  0  0  0
  8 34  1  0  0  0
 34 35  1  0  0  0
 35 36  2  0  0  0
 36 37  1  0  0  0
 37 38  2  0  0  0
 38 39  1  0  0  0
 39 40  2  0  0  0
  3  9  1  0  0  0
  9 10  2  0  0  0
 10 11  1  0  0  0
 11 12  1  0  0  0
 11 13  2  0  0  0
 13 14  1  0  0  0
 14 15  2  0  0  0
 15 16  1  0  0  0
 16 17  2  0  0  0
 16  1  1  0  0  0
  8  3  1  0  0  0
 40 35  1  0  0  0
 15  9  1  0  0  0
 27 18  1  0  0  0
 27 22  1  0  0  0
 30 33  1  0  0  0
M  END
> <minimizedAffinity>
-8.41923

> <CNNscore>
0.3570485711

> <CNNaffinity>
6.7265357971

> <CNN_VS>
2.4017000198

> <CNNaffinity_variance>
0.1121622920

$$$$



 40 45  0  0  0  0  0  0  0  0999 V2000
   -5.8785   -4.1996  -21.6521 N   0  0  0  0  0  0  0  0  0  0  0  0
   -6.3077   -3.6778  -22.9914 C   0  0  0  0  0  0  0  0  0  0  0  0
   -6.3082   -2.2014  -23.2559 C   0  0  0  0  0  0  0  0  0  0  0  0
   -6.3605   -0.7591  -23.6648 C   0  0  0  0  0  0  0  0  0  0  0  0
   -6.1366    0.3456  -23.2112 O   0  0  0  0  0  0  0  0  0  0  0  0
   -6.8450   -0.6966  -25.0830 N   0  0  0  0  0  0  0  0  0  0  0  0
   -7.0921   -2.1002  -25.5507 C   0  0  0  0  0  0  0  0  0  0  0  0
   -6.7604   -3.0302  -24.4215 C   0  0  0  0  0  0  0  0  0  0  0  0
   -5.8796   -1.2467  -22.1812 C   0  0  0  0  0  0  0  0  0  0  0  0
   -5.8802    0.2298  -22.4458 C   0  0  0  0  0  0  0  0  0  0  0  0
   -5.4516    1.1844  -21.3712 C   0  0  0  0  0  0  0  0  0  0  0  0
   -5.4521    2.6610  -21.6357 Cl  0  0  0  0  0  0  0  0  0  0  0  0
   -5.0225    0.6626  -20.0319 C   0  0  0  0  0  0  0  0  0  0  0  0
   -5.0219   -0.8138  -19.7673 C   0  0  0  0  0  0  0  0  0  0  0  0
   -5.4505   -1.7685  -20.8420 C   0  0  0  0  0  0  0  0  0  0  0  0
   -5.4500   -3.2450  -20.5775 C   0  0  0  0  0  0  0  0  0  0  0  0
   -5.0209   -3.7668  -19.2382 O   0  0  0  0  0  0  0  0  0  0  0  0
   -7.0469    0.5506  -25.8915 C   0  0  0  0  0  0  0  0  0  0  0  0
   -8.3763    1.2453  -25.8794 C   0  0  0  0  0  0  0  0  0  0  0  0
   -8.5782    2.4925  -26.6879 N   0  0  0  0  0  0  0  0  0  0  0  0
   -7.4507    3.0450  -27.5086 C   0  0  0  0  0  0  0  0  0  0  0  0
   -6.1213    2.3503  -27.5207 C   0  0  0  0  0  0  0  0  0  0  0  0
   -4.9938    2.9028  -28.3414 C   0  0  0  0  0  0  0  0  0  0  0  0
   -3.6644    2.2080  -28.3535 C   0  0  0  0  0  0  0  0  0  0  0  0
   -3.4625    0.9608  -27.5450 C   0  0  0  0  0  0  0  0  0  0  0  0
   -4.5900    0.4084  -26.7243 C   0  0  0  0  0  0  0  0  0  0  0  0
   -5.9194    1.1031  -26.7122 C   0  0  0  0  0  0  0  0  0  0  0  0
   -5.8780   -5.6762  -21.3876 C   0  0  0  0  0  0  0  0  0  0  0  0
   -3.5244   -7.3426  -24.1140 C   0  0  0  0  0  0  0  0  0  0  0  0
   -4.0320   -6.3937  -23.0691 N   0  0  0  0  0  0  0  0  0  0  0  0
   -5.3703   -6.6251  -22.4324 C   0  0  0  0  0  0  0  0  0  0  0  0
   -6.2010   -7.8056  -22.8407 O   0  0  0  0  0  0  0  0  0  0  0  0
   -3.4869   -5.6189  -22.8012 H   0  0  0  0  0  0  0  0  0  0  0  0
   -6.8628   -4.5264  -24.4525 C   0  0  0  0  0  0  0  0  0  0  0  0
   -8.0075   -5.1852  -25.1634 C   0  0  0  0  0  0  0  0  0  0  0  0
   -9.3690   -4.5564  -25.1365 C   0  0  0  0  0  0  0  0  0  0  0  0
  -10.5137   -5.2153  -25.8474 C   0  0  0  0  0  0  0  0  0  0  0  0
  -10.2969   -6.5031  -26.5853 C   0  0  0  0  0  0  0  0  0  0  0  0
   -8.9354   -7.1321  -26.6123 C   0  0  0  0  0  0  0  0  0  0  0  0
   -7.7906   -6.4731  -25.9013 C   0  0  0  0  0  0  0  0  0  0  0  0
 29 30  1  0  0  0
 30 31  1  0  0  0
 31 32  2  0  0  0
 31 28  1  0  0  0
 28  1  1  0  0  0
  1  2  1  0  0  0
  3  2  1  0  0  0
  3  4  1  0  0  0
  4  5  2  0  0  0
  4  6  1  0  0  0
  6 18  1  0  0  0
 18 19  2  0  0  0
 19 20  1  0  0  0
 20 21  2  0  0  0
 21 22  1  0  0  0
 22 23  2  0  0  0
 23 24  1  0  0  0
 24 25  2  0  0  0
 25 26  1  0  0  0
 26 27  2  0  0  0
  6  7  1  0  0  0
  7  8  1  0  0  0
  8 34  1  0  0  0
 34 35  1  0  0  0
 35 36  2  0  0  0
 36 37  1  0  0  0
 37 38  2  0  0  0
 38 39  1  0  0  0
 39 40  2  0  0  0
  3  9  1  0  0  0
  9 10  2  0  0  0
 10 11  1  0  0  0
 11 12  1  0  0  0
 11 13  2  0  0  0
 13 14  1  0  0  0
 14 15  2  0  0  0
 15 16  1  0  0  0
 16 17  2  0  0  0
 16  1  1  0  0  0
  8  3  1  0  0  0
 40 35  1  0  0  0
 15  9  1  0  0  0
 27 18  1  0  0  0
 27 22  1  0  0  0
 30 33  1  0  0  0
M  END
> <minimizedAffinity>
-7.52397

> <CNNscore>
0.3400705457

> <CNNaffinity>
6.5545897484

> <CNN_VS>
2.2290229797

> <CNNaffinity_variance>
0.0277539846

$$$$



 40 45  0  0  0  0  0  0  0  0999 V2000
  -11.6856    3.7765  -24.1029 N   0  0  0  0  0  0  0  0  0  0  0  0
  -10.3063    3.1932  -24.0177 C   0  0  0  0  0  0  0  0  0  0  0  0
  -10.1261    1.7337  -23.7222 C   0  0  0  0  0  0  0  0  0  0  0  0
   -9.7913    0.2999  -23.4358 C   0  0  0  0  0  0  0  0  0  0  0  0
  -10.3446   -0.7569  -23.2046 O   0  0  0  0  0  0  0  0  0  0  0  0
   -8.2977    0.1618  -23.4451 N   0  0  0  0  0  0  0  0  0  0  0  0
   -7.7094    1.5103  -23.7371 C   0  0  0  0  0  0  0  0  0  0  0  0
   -8.8394    2.4818  -23.9084 C   0  0  0  0  0  0  0  0  0  0  0  0
  -11.3253    0.8575  -23.5118 C   0  0  0  0  0  0  0  0  0  0  0  0
  -11.1452   -0.6020  -23.2163 C   0  0  0  0  0  0  0  0  0  0  0  0
  -12.3443   -1.4782  -23.0060 C   0  0  0  0  0  0  0  0  0  0  0  0
  -12.1642   -2.9378  -22.7104 Cl  0  0  0  0  0  0  0  0  0  0  0  0
  -13.7236   -0.8949  -23.0911 C   0  0  0  0  0  0  0  0  0  0  0  0
  -13.9038    0.5646  -23.3867 C   0  0  0  0  0  0  0  0  0  0  0  0
  -12.7046    1.4408  -23.5970 C   0  0  0  0  0  0  0  0  0  0  0  0
  -12.8847    2.9004  -23.8925 C   0  0  0  0  0  0  0  0  0  0  0  0
  -14.2640    3.4837  -23.9777 O   0  0  0  0  0  0  0  0  0  0  0  0
   -7.5277   -1.1028  -23.2045 C   0  0  0  0  0  0  0  0  0  0  0  0
   -6.9554   -1.3857  -21.8471 C   0  0  0  0  0  0  0  0  0  0  0  0
   -6.1853   -2.6503  -21.6065 N   0  0  0  0  0  0  0  0  0  0  0  0
   -5.9877   -3.6319  -22.7233 C   0  0  0  0  0  0  0  0  0  0  0  0
   -6.5600   -3.3490  -24.0806 C   0  0  0  0  0  0  0  0  0  0  0  0
   -6.3623   -4.3308  -25.1975 C   0  0  0  0  0  0  0  0  0  0  0  0
   -6.9347   -4.0478  -26.5548 C   0  0  0  0  0  0  0  0  0  0  0  0
   -7.7047   -2.7832  -26.7954 C   0  0  0  0  0  0  0  0  0  0  0  0
   -7.9024   -1.8016  -25.6786 C   0  0  0  0  0  0  0  0  0  0  0  0
   -7.3300   -2.0845  -24.3212 C   0  0  0  0  0  0  0  0  0  0  0  0
  -11.8657    5.2361  -24.3984 C   0  0  0  0  0  0  0  0  0  0  0  0
  -12.4545    5.5133  -28.3133 C   0  0  0  0  0  0  0  0  0  0  0  0
  -11.8934    5.0794  -26.9916 N   0  0  0  0  0  0  0  0  0  0  0  0
  -12.4267    5.6700  -25.7201 C   0  0  0  0  0  0  0  0  0  0  0  0
  -13.5212    6.6946  -25.7704 O   0  0  0  0  0  0  0  0  0  0  0  0
  -11.1751    4.4069  -26.9586 H   0  0  0  0  0  0  0  0  0  0  0  0
   -8.7060    3.9446  -24.2125 C   0  0  0  0  0  0  0  0  0  0  0  0
   -7.5327    4.7163  -23.6856 C   0  0  0  0  0  0  0  0  0  0  0  0
   -6.1820    4.5515  -24.3169 C   0  0  0  0  0  0  0  0  0  0  0  0
   -5.0087    5.3232  -23.7900 C   0  0  0  0  0  0  0  0  0  0  0  0
   -5.1860    6.2598  -22.6318 C   0  0  0  0  0  0  0  0  0  0  0  0
   -6.5366    6.4246  -22.0005 C   0  0  0  0  0  0  0  0  0  0  0  0
   -7.7100    5.6528  -22.5274 C   0  0  0  0  0  0  0  0  0  0  0  0
 29 30  1  0  0  0
 30 31  1  0  0  0
 31 32  2  0  0  0
 31 28  1  0  0  0
 28  1  1  0  0  0
  1  2  1  0  0  0
  3  2  1  0  0  0
  3  4  1  0  0  0
  4  5  2  0  0  0
  4  6  1  0  0  0
  6 18  1  0  0  0
 18 19  2  0  0  0
 19 20  1  0  0  0
 20 21  2  0  0  0
 21 22  1  0  0  0
 22 23  2  0  0  0
 23 24  1  0  0  0
 24 25  2  0  0  0
 25 26  1  0  0  0
 26 27  2  0  0  0
  6  7  1  0  0  0
  7  8  1  0  0  0
  8 34  1  0  0  0
 34 35  1  0  0  0
 35 36  2  0  0  0
 36 37  1  0  0  0
 37 38  2  0  0  0
 38 39  1  0  0  0
 39 40  2  0  0  0
  3  9  1  0  0  0
  9 10  2  0  0  0
 10 11  1  0  0  0
 11 12  1  0  0  0
 11 13  2  0  0  0
 13 14  1  0  0  0
 14 15  2  0  0  0
 15 16  1  0  0  0
 16 17  2  0  0  0
 16  1  1  0  0  0
  8  3  1  0  0  0
 40 35  1  0  0  0
 15  9  1  0  0  0
 27 18  1  0  0  0
 27 22  1  0  0  0
 30 33  1  0  0  0
M  END
> <minimizedAffinity>
-7.42116

> <CNNscore>
0.3340784609

> <CNNaffinity>
6.6410393715

> <CNN_VS>
2.2186281681

> <CNNaffinity_variance>
0.2374783754

$$$$



 40 45  0  0  0  0  0  0  0  0999 V2000
   -7.2894   -3.9764  -22.4173 N   0  0  0  0  0  0  0  0  0  0  0  0
   -8.4069   -3.1969  -23.0447 C   0  0  0  0  0  0  0  0  0  0  0  0
   -8.3832   -1.6974  -23.0172 C   0  0  0  0  0  0  0  0  0  0  0  0
   -8.4958   -0.2025  -23.0671 C   0  0  0  0  0  0  0  0  0  0  0  0
   -7.8892    0.7890  -22.7133 O   0  0  0  0  0  0  0  0  0  0  0  0
   -9.7665    0.1429  -23.7856 N   0  0  0  0  0  0  0  0  0  0  0  0
  -10.4392   -1.1387  -24.1796 C   0  0  0  0  0  0  0  0  0  0  0  0
   -9.5842   -2.2760  -23.7047 C   0  0  0  0  0  0  0  0  0  0  0  0
   -7.2418   -0.9773  -22.3622 C   0  0  0  0  0  0  0  0  0  0  0  0
   -7.2181    0.5222  -22.3346 C   0  0  0  0  0  0  0  0  0  0  0  0
   -6.0768    1.2423  -21.6797 C   0  0  0  0  0  0  0  0  0  0  0  0
   -6.0530    2.7419  -21.6521 Cl  0  0  0  0  0  0  0  0  0  0  0  0
   -4.9593    0.4628  -21.0523 C   0  0  0  0  0  0  0  0  0  0  0  0
   -4.9831   -1.0367  -21.0799 C   0  0  0  0  0  0  0  0  0  0  0  0
   -6.1243   -1.7568  -21.7348 C   0  0  0  0  0  0  0  0  0  0  0  0
   -6.1482   -3.2564  -21.7624 C   0  0  0  0  0  0  0  0  0  0  0  0
   -5.0307   -4.0359  -21.1350 O   0  0  0  0  0  0  0  0  0  0  0  0
  -10.2752    1.5267  -24.0615 C   0  0  0  0  0  0  0  0  0  0  0  0
  -11.3571    2.1130  -23.2038 C   0  0  0  0  0  0  0  0  0  0  0  0
  -11.8657    3.4969  -23.4797 N   0  0  0  0  0  0  0  0  0  0  0  0
  -11.2925    4.2945  -24.6134 C   0  0  0  0  0  0  0  0  0  0  0  0
  -10.2106    3.7081  -25.4712 C   0  0  0  0  0  0  0  0  0  0  0  0
   -9.6373    4.5058  -26.6049 C   0  0  0  0  0  0  0  0  0  0  0  0
   -8.5554    3.9194  -27.4626 C   0  0  0  0  0  0  0  0  0  0  0  0
   -8.0468    2.5355  -27.1867 C   0  0  0  0  0  0  0  0  0  0  0  0
   -8.6200    1.7379  -26.0530 C   0  0  0  0  0  0  0  0  0  0  0  0
   -9.7019    2.3243  -25.1952 C   0  0  0  0  0  0  0  0  0  0  0  0
   -7.3133   -5.4760  -22.4449 C   0  0  0  0  0  0  0  0  0  0  0  0
   -3.7023   -6.9200  -23.2360 C   0  0  0  0  0  0  0  0  0  0  0  0
   -4.9806   -6.1470  -23.3715 N   0  0  0  0  0  0  0  0  0  0  0  0
   -6.0349   -6.2490  -22.3094 C   0  0  0  0  0  0  0  0  0  0  0  0
   -5.8109   -7.1241  -21.1119 O   0  0  0  0  0  0  0  0  0  0  0  0
   -5.1276   -5.5726  -24.1574 H   0  0  0  0  0  0  0  0  0  0  0  0
   -9.8786   -3.7356  -23.8856 C   0  0  0  0  0  0  0  0  0  0  0  0
   -9.8235   -4.3480  -25.2538 C   0  0  0  0  0  0  0  0  0  0  0  0
   -9.2208   -3.5826  -26.3944 C   0  0  0  0  0  0  0  0  0  0  0  0
   -9.1657   -4.1950  -27.7625 C   0  0  0  0  0  0  0  0  0  0  0  0
   -9.7134   -5.5728  -27.9901 C   0  0  0  0  0  0  0  0  0  0  0  0
  -10.3161   -6.3382  -26.8496 C   0  0  0  0  0  0  0  0  0  0  0  0
  -10.3712   -5.7258  -25.4814 C   0  0  0  0  0  0  0  0  0  0  0  0
 29 30  1  0  0  0
 30 31  1  0  0  0
 31 32  2  0  0  0
 31 28  1  0  0  0
 28  1  1  0  0  0
  1  2  1  0  0  0
  3  2  1  0  0  0
  3  4  1  0  0  0
  4  5  2  0  0  0
  4  6  1  0  0  0
  6 18  1  0  0  0
 18 19  2  0  0  0
 19 20  1  0  0  0
 20 21  2  0  0  0
 21 22  1  0  0  0
 22 23  2  0  0  0
 23 24  1  0  0  0
 24 25  2  0  0  0
 25 26  1  0  0  0
 26 27  2  0  0  0
  6  7  1  0  0  0
  7  8  1  0  0  0
  8 34  1  0  0  0
 34 35  1  0  0  0
 35 36  2  0  0  0
 36 37  1  0  0  0
 37 38  2  0  0  0
 38 39  1  0  0  0
 39 40  2  0  0  0
  3  9  1  0  0  0
  9 10  2  0  0  0
 10 11  1  0  0  0
 11 12  1  0  0  0
 11 13  2  0  0  0
 13 14  1  0  0  0
 14 15  2  0  0  0
 15 16  1  0  0  0
 16 17  2  0  0  0
 16  1  1  0  0  0
  8  3  1  0  0  0
 40 35  1  0  0  0
 15  9  1  0  0  0
 27 18  1  0  0  0
 27 22  1  0  0  0
 30 33  1  0  0  0
M  END
> <minimizedAffinity>
-7.31304

> <CNNscore>
0.3069002330

> <CNNaffinity>
6.6366348267

> <CNN_VS>
2.0367848873

> <CNNaffinity_variance>
0.1538344026

$$$$
