
     RDKit          2D

 39 44  0  0  0  0  0  0  0  0999 V2000
   -5.2500   -6.4952    0.0000 C   0  0  0  0  0  0  0  0  0  0  0  0
   -3.7500   -6.4952    0.0000 N   0  0  0  0  0  0  0  0  0  0  0  0
   -3.0000   -5.1962    0.0000 C   0  0  0  0  0  0  0  0  0  0  0  0
   -3.7500   -3.8971    0.0000 O   0  0  0  0  0  0  0  0  0  0  0  0
   -1.5000   -5.1962    0.0000 C   0  0  0  0  0  0  0  0  0  0  0  0
   -0.7500   -3.8971    0.0000 N   0  0  0  0  0  0  0  0  0  0  0  0
    0.7500   -3.8971    0.0000 C   0  0  0  0  0  0  0  0  0  0  0  0
    1.5000   -2.5981    0.0000 C   0  0  0  0  0  0  0  0  0  0  0  0
    2.3817   -1.3846    0.0000 C   0  0  0  0  0  0  0  0  0  0  0  0
    2.2970   -0.1725    0.0000 O   0  0  0  0  0  0  0  0  0  0  0  0
    3.8083   -1.8481    0.0000 N   0  0  0  0  0  0  0  0  0  0  0  0
    5.0218   -0.9664    0.0000 C   0  0  0  0  0  0  0  0  0  0  0  0
    4.8650    0.5254    0.0000 C   0  0  0  0  0  0  0  0  0  0  0  0
    6.0785    1.4071    0.0000 N   0  0  0  0  0  0  0  0  0  0  0  0
    7.4488    0.7970    0.0000 C   0  0  0  0  0  0  0  0  0  0  0  0
    7.6056   -0.6948    0.0000 C   0  0  0  0  0  0  0  0  0  0  0  0
    8.9760   -1.3049    0.0000 C   0  0  0  0  0  0  0  0  0  0  0  0
    9.1327   -2.7967    0.0000 C   0  0  0  0  0  0  0  0  0  0  0  0
    7.9192   -3.6784    0.0000 C   0  0  0  0  0  0  0  0  0  0  0  0
    6.5489   -3.0683    0.0000 C   0  0  0  0  0  0  0  0  0  0  0  0
    6.3921   -1.5765    0.0000 C   0  0  0  0  0  0  0  0  0  0  0  0
    3.8083   -3.3481    0.0000 C   0  0  0  0  0  0  0  0  0  0  0  0
    2.3817   -3.8116    0.0000 C   0  0  0  0  0  0  0  0  0  0  0  0
    1.9182   -5.2382    0.0000 C   0  0  0  0  0  0  0  0  0  0  0  0
    2.9218   -6.3529    0.0000 C   0  0  0  0  0  0  0  0  0  0  0  0
    2.4583   -7.7795    0.0000 C   0  0  0  0  0  0  0  0  0  0  0  0
    3.4620   -8.8942    0.0000 C   0  0  0  0  0  0  0  0  0  0  0  0
    4.9292   -8.5823    0.0000 C   0  0  0  0  0  0  0  0  0  0  0  0
    5.3928   -7.1558    0.0000 C   0  0  0  0  0  0  0  0  0  0  0  0
    4.3891   -6.0410    0.0000 C   0  0  0  0  0  0  0  0  0  0  0  0
    0.7500   -1.2990    0.0000 C   0  0  0  0  0  0  0  0  0  0  0  0
    1.5000    0.0000    0.0000 C   0  0  0  0  0  0  0  0  0  0  0  0
    0.7500    1.2990    0.0000 C   0  0  0  0  0  0  0  0  0  0  0  0
    1.5000    2.5981    0.0000 Cl  0  0  0  0  0  0  0  0  0  0  0  0
   -0.7500    1.2990    0.0000 C   0  0  0  0  0  0  0  0  0  0  0  0
   -1.5000    0.0000    0.0000 C   0  0  0  0  0  0  0  0  0  0  0  0
   -0.7500   -1.2990    0.0000 C   0  0  0  0  0  0  0  0  0  0  0  0
   -1.5000   -2.5981    0.0000 C   0  0  0  0  0  0  0  0  0  0  0  0
   -3.0000   -2.5981    0.0000 O   0  0  0  0  0  0  0  0  0  0  0  0
  1  2  1  0
  2  3  1  0
  3  4  2  0
  3  5  1  0
  5  6  1  0
  6  7  1  0
  8  7  1  6
  8  9  1  0
  9 10  2  0
  9 11  1  0
 11 12  1  0
 12 13  2  0
 13 14  1  0
 14 15  2  0
 15 16  1  0
 16 17  2  0
 17 18  1  0
 18 19  2  0
 19 20  1  0
 20 21  2  0
 11 22  1  0
 22 23  1  0
 23 24  1  6
 24 25  1  0
 25 26  2  0
 26 27  1  0
 27 28  2  0
 28 29  1  0
 29 30  2  0
  8 31  1  0
 31 32  2  0
 32 33  1  0
 33 34  1  0
 33 35  2  0
 35 36  1  0
 36 37  2  0
 37 38  1  0
 38 39  2  0
 38  6  1  0
 23  8  1  0
 30 25  1  0
 37 31  1  0
 21 12  1  0
 21 16  1  0
M  END
$$$$
