


 38 43  0  0  0  0  0  0  0  0999 V2000
  -10.6394   -1.9122  -24.2941 C   0  0  0  0  0  0  0  0  0  0  0  0
  -10.2982   -0.4735  -24.0416 C   0  0  0  0  0  0  0  0  0  0  0  0
  -11.5247    0.3764  -23.8891 C   0  0  0  0  0  0  0  0  0  0  0  0
  -11.0824    1.7882  -23.6416 N   0  0  0  0  0  0  0  0  0  0  0  0
   -9.5826    1.8108  -23.6411 C   0  0  0  0  0  0  0  0  0  0  0  0
   -8.7191    3.0191  -23.4305 O   0  0  0  0  0  0  0  0  0  0  0  0
   -9.0979    0.4129  -23.8883 C   0  0  0  0  0  0  0  0  0  0  0  0
   -7.9982    1.4181  -23.7140 C   0  0  0  0  0  0  0  0  0  0  0  0
   -6.5649    0.9831  -23.7939 N   0  0  0  0  0  0  0  0  0  0  0  0
   -6.2313   -0.4570  -24.0482 C   0  0  0  0  0  0  0  0  0  0  0  0
   -4.7980   -0.8920  -24.1281 O   0  0  0  0  0  0  0  0  0  0  0  0
   -7.3310   -1.4623  -24.2226 C   0  0  0  0  0  0  0  0  0  0  0  0
   -6.9973   -2.9024  -24.4769 C   0  0  0  0  0  0  0  0  0  0  0  0
   -8.0970   -3.9075  -24.6512 C   0  0  0  0  0  0  0  0  0  0  0  0
   -9.5303   -3.4725  -24.5713 C   0  0  0  0  0  0  0  0  0  0  0  0
  -10.6300   -4.4777  -24.7457 Cl  0  0  0  0  0  0  0  0  0  0  0  0
   -9.8639   -2.0324  -24.3170 C   0  0  0  0  0  0  0  0  0  0  0  0
   -8.7643   -1.0273  -24.1427 C   0  0  0  0  0  0  0  0  0  0  0  0
  -11.9820    2.9700  -23.4315 C   0  0  0  0  0  0  0  0  0  0  0  0
  -12.9045    3.0095  -22.2494 C   0  0  0  0  0  0  0  0  0  0  0  0
  -13.8041    4.1913  -22.0393 N   0  0  0  0  0  0  0  0  0  0  0  0
  -13.7812    5.3335  -23.0113 C   0  0  0  0  0  0  0  0  0  0  0  0
  -12.8586    5.2939  -24.1934 C   0  0  0  0  0  0  0  0  0  0  0  0
  -12.8357    6.4362  -25.1654 C   0  0  0  0  0  0  0  0  0  0  0  0
  -11.9132    6.3966  -26.3475 C   0  0  0  0  0  0  0  0  0  0  0  0
  -11.0136    5.2149  -26.5576 C   0  0  0  0  0  0  0  0  0  0  0  0
  -11.0366    4.0726  -25.5856 C   0  0  0  0  0  0  0  0  0  0  0  0
  -11.9590    4.1122  -24.4035 C   0  0  0  0  0  0  0  0  0  0  0  0
   -5.4652    1.9883  -23.6195 C   0  0  0  0  0  0  0  0  0  0  0  0
   -4.8163    2.1650  -22.2788 C   0  0  0  0  0  0  0  0  0  0  0  0
   -5.1914    1.2643  -21.1395 N   0  0  0  0  0  0  0  0  0  0  0  0
   -6.4602    0.4663  -21.2006 C   0  0  0  0  0  0  0  0  0  0  0  0
   -6.8352   -0.4344  -20.0613 C   0  0  0  0  0  0  0  0  0  0  0  0
   -5.9416   -0.5372  -18.8609 S   0  0  0  0  0  0  0  0  0  0  0  0
   -5.4265   -0.9693  -17.5201 O   0  0  0  0  0  0  0  0  0  0  0  0
   -7.0315   -1.4852  -18.4564 O   0  0  0  0  0  0  0  0  0  0  0  0
   -4.6730    0.2606  -18.7998 C   0  0  0  0  0  0  0  0  0  0  0  0
   -4.2978    1.1614  -19.9391 C   0  0  0  0  0  0  0  0  0  0  0  0
  2  1  1  0  0  0
  2  3  1  0  0  0
  3  4  1  0  0  0
  4 19  1  0  0  0
 19 20  2  0  0  0
 20 21  1  0  0  0
 21 22  2  0  0  0
 22 23  1  0  0  0
 23 24  2  0  0  0
 24 25  1  0  0  0
 25 26  2  0  0  0
 26 27  1  0  0  0
 27 28  2  0  0  0
  4  5  1  0  0  0
  5  6  2  0  0  0
  5  7  1  0  0  0
  7  8  1  0  0  0
  8  9  1  0  0  0
  9 29  1  0  0  0
 29 30  1  0  0  0
 30 31  1  0  0  0
 31 32  1  0  0  0
 32 33  1  0  0  0
 33 34  1  0  0  0
 34 35  2  0  0  0
 34 36  2  0  0  0
 34 37  1  0  0  0
 37 38  1  0  0  0
  9 10  1  0  0  0
 10 11  2  0  0  0
 10 12  1  0  0  0
 12 13  2  0  0  0
 13 14  1  0  0  0
 14 15  2  0  0  0
 15 16  1  0  0  0
 15 17  1  0  0  0
 17 18  2  0  0  0
  7  2  1  0  0  0
 38 31  1  0  0  0
 18 12  1  0  0  0
 28 19  1  0  0  0
 18  7  1  0  0  0
 28 23  1  0  0  0
M  END
> <minimizedAffinity>
-9.01484

> <CNNscore>
0.2957247794

> <CNNaffinity>
6.4957084656

> <CNN_VS>
1.9209419489

> <CNNaffinity_variance>
0.1134696826

$$$$



 38 43  0  0  0  0  0  0  0  0999 V2000
  -12.1829    0.3504  -23.4944 C   0  0  0  0  0  0  0  0  0  0  0  0
  -10.8419    0.9110  -23.8655 C   0  0  0  0  0  0  0  0  0  0  0  0
  -10.9020    2.3873  -24.1238 C   0  0  0  0  0  0  0  0  0  0  0  0
   -9.5221    2.8512  -24.4850 N   0  0  0  0  0  0  0  0  0  0  0  0
   -8.6091    1.6616  -24.4499 C   0  0  0  0  0  0  0  0  0  0  0  0
   -7.1386    1.6697  -24.7458 O   0  0  0  0  0  0  0  0  0  0  0  0
   -9.4248    0.4624  -24.0671 C   0  0  0  0  0  0  0  0  0  0  0  0
   -7.9740    0.1633  -24.3028 C   0  0  0  0  0  0  0  0  0  0  0  0
   -7.4624   -1.2383  -24.1485 N   0  0  0  0  0  0  0  0  0  0  0  0
   -8.4017   -2.3408  -23.7586 C   0  0  0  0  0  0  0  0  0  0  0  0
   -7.8901   -3.7424  -23.6044 O   0  0  0  0  0  0  0  0  0  0  0  0
   -9.8526   -2.0418  -23.5229 C   0  0  0  0  0  0  0  0  0  0  0  0
  -10.7919   -3.1444  -23.1330 C   0  0  0  0  0  0  0  0  0  0  0  0
  -12.2427   -2.8453  -22.8973 C   0  0  0  0  0  0  0  0  0  0  0  0
  -12.7543   -1.4437  -23.0516 C   0  0  0  0  0  0  0  0  0  0  0  0
  -14.2052   -1.1447  -22.8158 Cl  0  0  0  0  0  0  0  0  0  0  0  0
  -11.8150   -0.3411  -23.4415 C   0  0  0  0  0  0  0  0  0  0  0  0
  -10.3642   -0.6402  -23.6771 C   0  0  0  0  0  0  0  0  0  0  0  0
   -9.1248    4.2578  -24.8221 C   0  0  0  0  0  0  0  0  0  0  0  0
   -9.7278    4.9427  -26.0125 C   0  0  0  0  0  0  0  0  0  0  0  0
   -9.3305    6.3493  -26.3496 N   0  0  0  0  0  0  0  0  0  0  0  0
   -8.3301    7.0710  -25.4961 C   0  0  0  0  0  0  0  0  0  0  0  0
   -7.7271    6.3861  -24.3056 C   0  0  0  0  0  0  0  0  0  0  0  0
   -6.7267    7.1079  -23.4522 C   0  0  0  0  0  0  0  0  0  0  0  0
   -6.1236    6.4229  -22.2617 C   0  0  0  0  0  0  0  0  0  0  0  0
   -6.5210    5.0164  -21.9247 C   0  0  0  0  0  0  0  0  0  0  0  0
   -7.5213    4.2947  -22.7781 C   0  0  0  0  0  0  0  0  0  0  0  0
   -8.1244    4.9795  -23.9686 C   0  0  0  0  0  0  0  0  0  0  0  0
   -6.0115   -1.5373  -24.3842 C   0  0  0  0  0  0  0  0  0  0  0  0
   -4.9599   -0.8289  -23.5829 C   0  0  0  0  0  0  0  0  0  0  0  0
   -5.0779   -0.7554  -22.0893 N   0  0  0  0  0  0  0  0  0  0  0  0
   -4.6433    0.4828  -21.3627 C   0  0  0  0  0  0  0  0  0  0  0  0
   -4.7612    0.5563  -19.8691 C   0  0  0  0  0  0  0  0  0  0  0  0
   -5.3138   -0.6084  -19.1022 S   0  0  0  0  0  0  0  0  0  0  0  0
   -5.7705   -1.4438  -17.9432 O   0  0  0  0  0  0  0  0  0  0  0  0
   -5.0378    0.3397  -17.9731 O   0  0  0  0  0  0  0  0  0  0  0  0
   -5.7484   -1.8466  -19.8288 C   0  0  0  0  0  0  0  0  0  0  0  0
   -5.6304   -1.9201  -21.3224 C   0  0  0  0  0  0  0  0  0  0  0  0
  2  1  1  0  0  0
  2  3  1  0  0  0
  3  4  1  0  0  0
  4 19  1  0  0  0
 19 20  2  0  0  0
 20 21  1  0  0  0
 21 22  2  0  0  0
 22 23  1  0  0  0
 23 24  2  0  0  0
 24 25  1  0  0  0
 25 26  2  0  0  0
 26 27  1  0  0  0
 27 28  2  0  0  0
  4  5  1  0  0  0
  5  6  2  0  0  0
  5  7  1  0  0  0
  7  8  1  0  0  0
  8  9  1  0  0  0
  9 29  1  0  0  0
 29 30  1  0  0  0
 30 31  1  0  0  0
 31 32  1  0  0  0
 32 33  1  0  0  0
 33 34  1  0  0  0
 34 35  2  0  0  0
 34 36  2  0  0  0
 34 37  1  0  0  0
 37 38  1  0  0  0
  9 10  1  0  0  0
 10 11  2  0  0  0
 10 12  1  0  0  0
 12 13  2  0  0  0
 13 14  1  0  0  0
 14 15  2  0  0  0
 15 16  1  0  0  0
 15 17  1  0  0  0
 17 18  2  0  0  0
  7  2  1  0  0  0
 38 31  1  0  0  0
 18 12  1  0  0  0
 28 19  1  0  0  0
 18  7  1  0  0  0
 28 23  1  0  0  0
M  END
> <minimizedAffinity>
-8.53734

> <CNNscore>
0.2664623857

> <CNNaffinity>
6.4888582230

> <CNN_VS>
1.7290366888

> <CNNaffinity_variance>
0.0416794010

$$$$



 38 43  0  0  0  0  0  0  0  0999 V2000
  -12.0236   -0.5004  -23.2866 C   0  0  0  0  0  0  0  0  0  0  0  0
  -11.4119    0.8475  -23.5297 C   0  0  0  0  0  0  0  0  0  0  0  0
  -12.4459    1.8820  -23.8622 C   0  0  0  0  0  0  0  0  0  0  0  0
  -11.7408    3.1868  -24.0866 N   0  0  0  0  0  0  0  0  0  0  0  0
  -10.2710    2.9586  -23.8926 C   0  0  0  0  0  0  0  0  0  0  0  0
   -9.1935    3.9944  -24.0205 O   0  0  0  0  0  0  0  0  0  0  0  0
  -10.0677    1.5129  -23.5485 C   0  0  0  0  0  0  0  0  0  0  0  0
   -8.7989    2.3109  -23.6044 C   0  0  0  0  0  0  0  0  0  0  0  0
   -7.4825    1.6470  -23.3276 N   0  0  0  0  0  0  0  0  0  0  0  0
   -7.4350    0.1852  -22.9949 C   0  0  0  0  0  0  0  0  0  0  0  0
   -6.1187   -0.4787  -22.7182 O   0  0  0  0  0  0  0  0  0  0  0  0
   -8.7039   -0.6129  -22.9390 C   0  0  0  0  0  0  0  0  0  0  0  0
   -8.6565   -2.0748  -22.6064 C   0  0  0  0  0  0  0  0  0  0  0  0
   -9.9253   -2.8728  -22.5505 C   0  0  0  0  0  0  0  0  0  0  0  0
  -11.2416   -2.2089  -22.8272 C   0  0  0  0  0  0  0  0  0  0  0  0
  -12.5105   -3.0070  -22.7713 Cl  0  0  0  0  0  0  0  0  0  0  0  0
  -11.2891   -0.7471  -23.1599 C   0  0  0  0  0  0  0  0  0  0  0  0
  -10.0203    0.0509  -23.2158 C   0  0  0  0  0  0  0  0  0  0  0  0
  -12.3912    4.4908  -24.4423 C   0  0  0  0  0  0  0  0  0  0  0  0
  -13.3081    5.1631  -23.4640 C   0  0  0  0  0  0  0  0  0  0  0  0
  -13.9585    6.4671  -23.8198 N   0  0  0  0  0  0  0  0  0  0  0  0
  -13.6919    7.0987  -25.1539 C   0  0  0  0  0  0  0  0  0  0  0  0
  -12.7750    6.4263  -26.1323 C   0  0  0  0  0  0  0  0  0  0  0  0
  -12.5085    7.0581  -27.4665 C   0  0  0  0  0  0  0  0  0  0  0  0
  -11.5915    6.3856  -28.4448 C   0  0  0  0  0  0  0  0  0  0  0  0
  -10.9412    5.0817  -28.0890 C   0  0  0  0  0  0  0  0  0  0  0  0
  -11.2077    4.4501  -26.7548 C   0  0  0  0  0  0  0  0  0  0  0  0
  -12.1246    5.1224  -25.7765 C   0  0  0  0  0  0  0  0  0  0  0  0
   -6.2136    2.4451  -23.3835 C   0  0  0  0  0  0  0  0  0  0  0  0
   -5.5465    2.8831  -22.1134 C   0  0  0  0  0  0  0  0  0  0  0  0
   -4.1091    2.5354  -21.8628 N   0  0  0  0  0  0  0  0  0  0  0  0
   -3.6794    2.0516  -20.5095 C   0  0  0  0  0  0  0  0  0  0  0  0
   -2.2420    1.7039  -20.2589 C   0  0  0  0  0  0  0  0  0  0  0  0
   -1.2342    1.8400  -21.3615 S   0  0  0  0  0  0  0  0  0  0  0  0
    0.0815    1.8038  -22.0809 O   0  0  0  0  0  0  0  0  0  0  0  0
   -0.3476    1.3436  -20.2581 O   0  0  0  0  0  0  0  0  0  0  0  0
   -1.6638    2.3239  -22.7148 C   0  0  0  0  0  0  0  0  0  0  0  0
   -3.1013    2.6716  -22.9654 C   0  0  0  0  0  0  0  0  0  0  0  0
  2  1  1  0  0  0
  2  3  1  0  0  0
  3  4  1  0  0  0
  4 19  1  0  0  0
 19 20  2  0  0  0
 20 21  1  0  0  0
 21 22  2  0  0  0
 22 23  1  0  0  0
 23 24  2  0  0  0
 24 25  1  0  0  0
 25 26  2  0  0  0
 26 27  1  0  0  0
 27 28  2  0  0  0
  4  5  1  0  0  0
  5  6  2  0  0  0
  5  7  1  0  0  0
  7  8  1  0  0  0
  8  9  1  0  0  0
  9 29  1  0  0  0
 29 30  1  0  0  0
 30 31  1  0  0  0
 31 32  1  0  0  0
 32 33  1  0  0  0
 33 34  1  0  0  0
 34 35  2  0  0  0
 34 36  2  0  0  0
 34 37  1  0  0  0
 37 38  1  0  0  0
  9 10  1  0  0  0
 10 11  2  0  0  0
 10 12  1  0  0  0
 12 13  2  0  0  0
 13 14  1  0  0  0
 14 15  2  0  0  0
 15 16  1  0  0  0
 15 17  1  0  0  0
 17 18  2  0  0  0
  7  2  1  0  0  0
 38 31  1  0  0  0
 18 12  1  0  0  0
 28 19  1  0  0  0
 18  7  1  0  0  0
 28 23  1  0  0  0
M  END
> <minimizedAffinity>
-8.04812

> <CNNscore>
0.2417406440

> <CNNaffinity>
6.3305664062

> <CNN_VS>
1.5303552151

> <CNNaffinity_variance>
0.0203801878

$$$$



 38 43  0  0  0  0  0  0  0  0999 V2000
   -7.2457    0.1258  -21.1435 C   0  0  0  0  0  0  0  0  0  0  0  0
   -8.4353   -0.0102  -22.0471 C   0  0  0  0  0  0  0  0  0  0  0  0
   -9.2290    1.2602  -22.1260 C   0  0  0  0  0  0  0  0  0  0  0  0
  -10.3895    1.0252  -23.0469 N   0  0  0  0  0  0  0  0  0  0  0  0
  -10.3129   -0.3904  -23.5371 C   0  0  0  0  0  0  0  0  0  0  0  0
  -11.2753   -1.0503  -24.4797 O   0  0  0  0  0  0  0  0  0  0  0  0
   -9.1052   -1.0303  -22.9192 C   0  0  0  0  0  0  0  0  0  0  0  0
   -9.8814   -1.9399  -23.8248 C   0  0  0  0  0  0  0  0  0  0  0  0
   -9.4239   -3.3519  -24.0410 N   0  0  0  0  0  0  0  0  0  0  0  0
   -8.1901   -3.8544  -23.3516 C   0  0  0  0  0  0  0  0  0  0  0  0
   -7.7326   -5.2665  -23.5678 O   0  0  0  0  0  0  0  0  0  0  0  0
   -7.4138   -2.9449  -22.4459 C   0  0  0  0  0  0  0  0  0  0  0  0
   -6.1801   -3.4474  -21.7565 C   0  0  0  0  0  0  0  0  0  0  0  0
   -5.4039   -2.5378  -20.8509 C   0  0  0  0  0  0  0  0  0  0  0  0
   -5.8614   -1.1258  -20.6347 C   0  0  0  0  0  0  0  0  0  0  0  0
   -5.0851   -0.2162  -19.7291 Cl  0  0  0  0  0  0  0  0  0  0  0  0
   -7.0952   -0.6233  -21.3241 C   0  0  0  0  0  0  0  0  0  0  0  0
   -7.8714   -1.5328  -22.2297 C   0  0  0  0  0  0  0  0  0  0  0  0
  -11.4418    2.0294  -23.4133 C   0  0  0  0  0  0  0  0  0  0  0  0
  -12.8781    1.7707  -23.0674 C   0  0  0  0  0  0  0  0  0  0  0  0
  -13.9304    2.7749  -23.4338 N   0  0  0  0  0  0  0  0  0  0  0  0
  -13.5462    4.0378  -24.1461 C   0  0  0  0  0  0  0  0  0  0  0  0
  -12.1097    4.2965  -24.4921 C   0  0  0  0  0  0  0  0  0  0  0  0
  -11.7256    5.5595  -25.2045 C   0  0  0  0  0  0  0  0  0  0  0  0
  -10.2891    5.8181  -25.5504 C   0  0  0  0  0  0  0  0  0  0  0  0
   -9.2369    4.8138  -25.1840 C   0  0  0  0  0  0  0  0  0  0  0  0
   -9.6211    3.5509  -24.4716 C   0  0  0  0  0  0  0  0  0  0  0  0
  -11.0575    3.2923  -24.1257 C   0  0  0  0  0  0  0  0  0  0  0  0
  -10.2002   -4.2615  -24.9467 C   0  0  0  0  0  0  0  0  0  0  0  0
   -9.9742   -4.2154  -26.4288 C   0  0  0  0  0  0  0  0  0  0  0  0
   -8.8671   -5.0190  -27.0440 N   0  0  0  0  0  0  0  0  0  0  0  0
   -9.1745   -6.3168  -27.7305 C   0  0  0  0  0  0  0  0  0  0  0  0
   -8.0673   -7.1204  -28.3457 C   0  0  0  0  0  0  0  0  0  0  0  0
   -6.6529   -6.6262  -28.2745 S   0  0  0  0  0  0  0  0  0  0  0  0
   -5.1659   -6.5767  -28.4646 O   0  0  0  0  0  0  0  0  0  0  0  0
   -6.4438   -7.9068  -29.0270 O   0  0  0  0  0  0  0  0  0  0  0  0
   -6.3455   -5.3284  -27.5881 C   0  0  0  0  0  0  0  0  0  0  0  0
   -7.4527   -4.5248  -26.9728 C   0  0  0  0  0  0  0  0  0  0  0  0
  2  1  1  0  0  0
  2  3  1  0  0  0
  3  4  1  0  0  0
  4 19  1  0  0  0
 19 20  2  0  0  0
 20 21  1  0  0  0
 21 22  2  0  0  0
 22 23  1  0  0  0
 23 24  2  0  0  0
 24 25  1  0  0  0
 25 26  2  0  0  0
 26 27  1  0  0  0
 27 28  2  0  0  0
  4  5  1  0  0  0
  5  6  2  0  0  0
  5  7  1  0  0  0
  7  8  1  0  0  0
  8  9  1  0  0  0
  9 29  1  0  0  0
 29 30  1  0  0  0
 30 31  1  0  0  0
 31 32  1  0  0  0
 32 33  1  0  0  0
 33 34  1  0  0  0
 34 35  2  0  0  0
 34 36  2  0  0  0
 34 37  1  0  0  0
 37 38  1  0  0  0
  9 10  1  0  0  0
 10 11  2  0  0  0
 10 12  1  0  0  0
 12 13  2  0  0  0
 13 14  1  0  0  0
 14 15  2  0  0  0
 15 16  1  0  0  0
 15 17  1  0  0  0
 17 18  2  0  0  0
  7  2  1  0  0  0
 38 31  1  0  0  0
 18 12  1  0  0  0
 28 19  1  0  0  0
 18  7  1  0  0  0
 28 23  1  0  0  0
M  END
> <minimizedAffinity>
-8.95143

> <CNNscore>
0.2369276434

> <CNNaffinity>
6.1784315109

> <CNN_VS>
1.4638411999

> <CNNaffinity_variance>
0.2711202800

$$$$



 38 43  0  0  0  0  0  0  0  0999 V2000
  -10.8775    2.8479  -24.0535 C   0  0  0  0  0  0  0  0  0  0  0  0
   -9.5333    2.1994  -24.2043 C   0  0  0  0  0  0  0  0  0  0  0  0
   -8.4458    3.2069  -24.4329 C   0  0  0  0  0  0  0  0  0  0  0  0
   -7.1489    2.4659  -24.5703 N   0  0  0  0  0  0  0  0  0  0  0  0
   -7.4349    1.0005  -24.4267 C   0  0  0  0  0  0  0  0  0  0  0  0
   -6.4245   -0.1060  -24.4969 O   0  0  0  0  0  0  0  0  0  0  0  0
   -8.9085    0.8357  -24.2004 C   0  0  0  0  0  0  0  0  0  0  0  0
   -8.1464   -0.4561  -24.2216 C   0  0  0  0  0  0  0  0  0  0  0  0
   -8.8684   -1.7562  -24.0259 N   0  0  0  0  0  0  0  0  0  0  0  0
  -10.3526   -1.7646  -23.8090 C   0  0  0  0  0  0  0  0  0  0  0  0
  -11.0747   -3.0647  -23.6133 O   0  0  0  0  0  0  0  0  0  0  0  0
  -11.1148   -0.4728  -23.7878 C   0  0  0  0  0  0  0  0  0  0  0  0
  -12.5990   -0.4812  -23.5709 C   0  0  0  0  0  0  0  0  0  0  0  0
  -13.3611    0.8106  -23.5498 C   0  0  0  0  0  0  0  0  0  0  0  0
  -12.6391    2.1107  -23.7455 C   0  0  0  0  0  0  0  0  0  0  0  0
  -13.4013    3.4025  -23.7243 Cl  0  0  0  0  0  0  0  0  0  0  0  0
  -11.1549    2.1191  -23.9624 C   0  0  0  0  0  0  0  0  0  0  0  0
  -10.3928    0.8274  -23.9835 C   0  0  0  0  0  0  0  0  0  0  0  0
   -5.8024    3.0822  -24.8095 C   0  0  0  0  0  0  0  0  0  0  0  0
   -4.8514    3.2735  -23.6655 C   0  0  0  0  0  0  0  0  0  0  0  0
   -3.5049    3.8898  -23.9046 N   0  0  0  0  0  0  0  0  0  0  0  0
   -3.1095    4.3147  -25.2878 C   0  0  0  0  0  0  0  0  0  0  0  0
   -4.0606    4.1233  -26.4318 C   0  0  0  0  0  0  0  0  0  0  0  0
   -3.6652    4.5483  -27.8150 C   0  0  0  0  0  0  0  0  0  0  0  0
   -4.6164    4.3568  -28.9590 C   0  0  0  0  0  0  0  0  0  0  0  0
   -5.9628    3.7406  -28.7198 C   0  0  0  0  0  0  0  0  0  0  0  0
   -6.3582    3.3157  -27.3366 C   0  0  0  0  0  0  0  0  0  0  0  0
   -5.4071    3.5071  -26.1927 C   0  0  0  0  0  0  0  0  0  0  0  0
   -8.1062   -3.0480  -24.0471 C   0  0  0  0  0  0  0  0  0  0  0  0
   -6.8099   -3.1662  -23.3018 C   0  0  0  0  0  0  0  0  0  0  0  0
   -6.6825   -2.5904  -21.9226 N   0  0  0  0  0  0  0  0  0  0  0  0
   -5.5346   -2.9929  -21.0449 C   0  0  0  0  0  0  0  0  0  0  0  0
   -5.4072   -2.4171  -19.6657 C   0  0  0  0  0  0  0  0  0  0  0  0
   -6.4277   -1.4389  -19.1642 S   0  0  0  0  0  0  0  0  0  0  0  0
   -7.1349   -0.4854  -18.2473 O   0  0  0  0  0  0  0  0  0  0  0  0
   -5.5254   -1.5102  -17.9681 O   0  0  0  0  0  0  0  0  0  0  0  0
   -7.5756   -1.0364  -20.0418 C   0  0  0  0  0  0  0  0  0  0  0  0
   -7.7030   -1.6122  -21.4211 C   0  0  0  0  0  0  0  0  0  0  0  0
  2  1  1  0  0  0
  2  3  1  0  0  0
  3  4  1  0  0  0
  4 19  1  0  0  0
 19 20  2  0  0  0
 20 21  1  0  0  0
 21 22  2  0  0  0
 22 23  1  0  0  0
 23 24  2  0  0  0
 24 25  1  0  0  0
 25 26  2  0  0  0
 26 27  1  0  0  0
 27 28  2  0  0  0
  4  5  1  0  0  0
  5  6  2  0  0  0
  5  7  1  0  0  0
  7  8  1  0  0  0
  8  9  1  0  0  0
  9 29  1  0  0  0
 29 30  1  0  0  0
 30 31  1  0  0  0
 31 32  1  0  0  0
 32 33  1  0  0  0
 33 34  1  0  0  0
 34 35  2  0  0  0
 34 36  2  0  0  0
 34 37  1  0  0  0
 37 38  1  0  0  0
  9 10  1  0  0  0
 10 11  2  0  0  0
 10 12  1  0  0  0
 12 13  2  0  0  0
 13 14  1  0  0  0
 14 15  2  0  0  0
 15 16  1  0  0  0
 15 17  1  0  0  0
 17 18  2  0  0  0
  7  2  1  0  0  0
 38 31  1  0  0  0
 18 12  1  0  0  0
 28 19  1  0  0  0
 18  7  1  0  0  0
 28 23  1  0  0  0
M  END
> <minimizedAffinity>
-8.05858

> <CNNscore>
0.1923881620

> <CNNaffinity>
6.2942419052

> <CNN_VS>
1.2109376192

> <CNNaffinity_variance>
0.1445377469

$$$$



 38 43  0  0  0  0  0  0  0  0999 V2000
  -12.0252    0.5052  -23.5154 C   0  0  0  0  0  0  0  0  0  0  0  0
  -10.6668    1.0339  -23.8697 C   0  0  0  0  0  0  0  0  0  0  0  0
  -10.6960    2.5040  -24.1666 C   0  0  0  0  0  0  0  0  0  0  0  0
   -9.3005    2.9357  -24.5076 N   0  0  0  0  0  0  0  0  0  0  0  0
   -8.4090    1.7325  -24.4214 C   0  0  0  0  0  0  0  0  0  0  0  0
   -6.9322    1.7088  -24.6834 O   0  0  0  0  0  0  0  0  0  0  0  0
   -9.2534    0.5571  -24.0271 C   0  0  0  0  0  0  0  0  0  0  0  0
   -7.8029    0.2283  -24.2217 C   0  0  0  0  0  0  0  0  0  0  0  0
   -7.3189   -1.1771  -24.0203 N   0  0  0  0  0  0  0  0  0  0  0  0
   -8.2854   -2.2537  -23.6243 C   0  0  0  0  0  0  0  0  0  0  0  0
   -7.8013   -3.6591  -23.4229 O   0  0  0  0  0  0  0  0  0  0  0  0
   -9.7359   -1.9249  -23.4297 C   0  0  0  0  0  0  0  0  0  0  0  0
  -10.7024   -3.0015  -23.0337 C   0  0  0  0  0  0  0  0  0  0  0  0
  -12.1529   -2.6727  -22.8391 C   0  0  0  0  0  0  0  0  0  0  0  0
  -12.6369   -1.2673  -23.0405 C   0  0  0  0  0  0  0  0  0  0  0  0
  -14.0875   -0.9385  -22.8459 Cl  0  0  0  0  0  0  0  0  0  0  0  0
  -11.6704   -0.1907  -23.4365 C   0  0  0  0  0  0  0  0  0  0  0  0
  -10.2200   -0.5195  -23.6311 C   0  0  0  0  0  0  0  0  0  0  0  0
   -8.8718    4.3264  -24.8709 C   0  0  0  0  0  0  0  0  0  0  0  0
   -8.2095    5.1989  -23.8463 C   0  0  0  0  0  0  0  0  0  0  0  0
   -7.7808    6.5896  -24.2097 N   0  0  0  0  0  0  0  0  0  0  0  0
   -8.0145    7.1079  -25.5977 C   0  0  0  0  0  0  0  0  0  0  0  0
   -8.6769    6.2354  -26.6224 C   0  0  0  0  0  0  0  0  0  0  0  0
   -8.9106    6.7537  -28.0106 C   0  0  0  0  0  0  0  0  0  0  0  0
   -9.5730    5.8811  -29.0352 C   0  0  0  0  0  0  0  0  0  0  0  0
  -10.0017    4.4904  -28.6718 C   0  0  0  0  0  0  0  0  0  0  0  0
   -9.7680    3.9722  -27.2837 C   0  0  0  0  0  0  0  0  0  0  0  0
   -9.1056    4.8446  -26.2591 C   0  0  0  0  0  0  0  0  0  0  0  0
   -5.8683   -1.5059  -24.2149 C   0  0  0  0  0  0  0  0  0  0  0  0
   -4.8212   -0.7722  -23.4306 C   0  0  0  0  0  0  0  0  0  0  0  0
   -4.9649   -0.6218  -21.9452 N   0  0  0  0  0  0  0  0  0  0  0  0
   -5.4783   -1.7656  -21.1217 C   0  0  0  0  0  0  0  0  0  0  0  0
   -5.6221   -1.6152  -19.6362 C   0  0  0  0  0  0  0  0  0  0  0  0
   -5.2524   -0.3210  -18.9741 S   0  0  0  0  0  0  0  0  0  0  0  0
   -5.0348    0.6990  -17.8961 O   0  0  0  0  0  0  0  0  0  0  0  0
   -5.6902   -1.1106  -17.7763 O   0  0  0  0  0  0  0  0  0  0  0  0
   -4.7390    0.8228  -19.7976 C   0  0  0  0  0  0  0  0  0  0  0  0
   -4.5953    0.6725  -21.2831 C   0  0  0  0  0  0  0  0  0  0  0  0
  2  1  1  0  0  0
  2  3  1  0  0  0
  3  4  1  0  0  0
  4 19  1  0  0  0
 19 20  2  0  0  0
 20 21  1  0  0  0
 21 22  2  0  0  0
 22 23  1  0  0  0
 23 24  2  0  0  0
 24 25  1  0  0  0
 25 26  2  0  0  0
 26 27  1  0  0  0
 27 28  2  0  0  0
  4  5  1  0  0  0
  5  6  2  0  0  0
  5  7  1  0  0  0
  7  8  1  0  0  0
  8  9  1  0  0  0
  9 29  1  0  0  0
 29 30  1  0  0  0
 30 31  1  0  0  0
 31 32  1  0  0  0
 32 33  1  0  0  0
 33 34  1  0  0  0
 34 35  2  0  0  0
 34 36  2  0  0  0
 34 37  1  0  0  0
 37 38  1  0  0  0
  9 10  1  0  0  0
 10 11  2  0  0  0
 10 12  1  0  0  0
 12 13  2  0  0  0
 13 14  1  0  0  0
 14 15  2  0  0  0
 15 16  1  0  0  0
 15 17  1  0  0  0
 17 18  2  0  0  0
  7  2  1  0  0  0
 38 31  1  0  0  0
 18 12  1  0  0  0
 28 19  1  0  0  0
 18  7  1  0  0  0
 28 23  1  0  0  0
M  END
> <minimizedAffinity>
-8.40199

> <CNNscore>
0.1784128100

> <CNNaffinity>
6.4163103104

> <CNN_VS>
1.1447519064

> <CNNaffinity_variance>
0.1087701693

$$$$



 38 43  0  0  0  0  0  0  0  0999 V2000
  -11.6358    0.1271  -23.7708 C   0  0  0  0  0  0  0  0  0  0  0  0
  -10.2706   -0.4907  -23.8395 C   0  0  0  0  0  0  0  0  0  0  0  0
  -10.3345   -1.9872  -23.9197 C   0  0  0  0  0  0  0  0  0  0  0  0
   -8.9295   -2.5083  -23.9842 N   0  0  0  0  0  0  0  0  0  0  0  0
   -7.9972   -1.3339  -23.9439 C   0  0  0  0  0  0  0  0  0  0  0  0
   -6.4991   -1.3956  -23.9857 O   0  0  0  0  0  0  0  0  0  0  0  0
   -8.8261   -0.0869  -23.8545 C   0  0  0  0  0  0  0  0  0  0  0  0
   -7.3475    0.1639  -23.8787 C   0  0  0  0  0  0  0  0  0  0  0  0
   -6.8238    1.5681  -23.8153 N   0  0  0  0  0  0  0  0  0  0  0  0
   -7.7787    2.7215  -23.7278 C   0  0  0  0  0  0  0  0  0  0  0  0
   -7.2550    4.1256  -23.6644 O   0  0  0  0  0  0  0  0  0  0  0  0
   -9.2575    2.4707  -23.7036 C   0  0  0  0  0  0  0  0  0  0  0  0
  -10.2124    3.6241  -23.6160 C   0  0  0  0  0  0  0  0  0  0  0  0
  -11.6911    3.3733  -23.5918 C   0  0  0  0  0  0  0  0  0  0  0  0
  -12.2148    1.9691  -23.6552 C   0  0  0  0  0  0  0  0  0  0  0  0
  -13.6935    1.7183  -23.6310 Cl  0  0  0  0  0  0  0  0  0  0  0  0
  -11.2598    0.8157  -23.7427 C   0  0  0  0  0  0  0  0  0  0  0  0
   -9.7812    1.0665  -23.7669 C   0  0  0  0  0  0  0  0  0  0  0  0
   -8.5272   -3.9506  -24.0734 C   0  0  0  0  0  0  0  0  0  0  0  0
   -7.8826   -4.6235  -22.8980 C   0  0  0  0  0  0  0  0  0  0  0  0
   -7.4803   -6.0658  -22.9872 N   0  0  0  0  0  0  0  0  0  0  0  0
   -7.7228   -6.8352  -24.2518 C   0  0  0  0  0  0  0  0  0  0  0  0
   -8.3674   -6.1622  -25.4272 C   0  0  0  0  0  0  0  0  0  0  0  0
   -8.6099   -6.9317  -26.6919 C   0  0  0  0  0  0  0  0  0  0  0  0
   -9.2545   -6.2587  -27.8673 C   0  0  0  0  0  0  0  0  0  0  0  0
   -9.6567   -4.8165  -27.7780 C   0  0  0  0  0  0  0  0  0  0  0  0
   -9.4143   -4.0471  -26.5134 C   0  0  0  0  0  0  0  0  0  0  0  0
   -8.7697   -4.7199  -25.3381 C   0  0  0  0  0  0  0  0  0  0  0  0
   -5.3450    1.8188  -23.8395 C   0  0  0  0  0  0  0  0  0  0  0  0
   -4.6053    2.0670  -22.5584 C   0  0  0  0  0  0  0  0  0  0  0  0
   -4.9564    1.2866  -21.3265 N   0  0  0  0  0  0  0  0  0  0  0  0
   -4.0518    1.3260  -20.1305 C   0  0  0  0  0  0  0  0  0  0  0  0
   -4.4029    0.5456  -18.8986 C   0  0  0  0  0  0  0  0  0  0  0  0
   -5.6586   -0.2741  -18.8625 S   0  0  0  0  0  0  0  0  0  0  0  0
   -6.7292   -1.1908  -18.3492 O   0  0  0  0  0  0  0  0  0  0  0  0
   -5.1258   -0.5531  -17.4884 O   0  0  0  0  0  0  0  0  0  0  0  0
   -6.5632   -0.3135  -20.0584 C   0  0  0  0  0  0  0  0  0  0  0  0
   -6.2121    0.4668  -21.2904 C   0  0  0  0  0  0  0  0  0  0  0  0
  2  1  1  0  0  0
  2  3  1  0  0  0
  3  4  1  0  0  0
  4 19  1  0  0  0
 19 20  2  0  0  0
 20 21  1  0  0  0
 21 22  2  0  0  0
 22 23  1  0  0  0
 23 24  2  0  0  0
 24 25  1  0  0  0
 25 26  2  0  0  0
 26 27  1  0  0  0
 27 28  2  0  0  0
  4  5  1  0  0  0
  5  6  2  0  0  0
  5  7  1  0  0  0
  7  8  1  0  0  0
  8  9  1  0  0  0
  9 29  1  0  0  0
 29 30  1  0  0  0
 30 31  1  0  0  0
 31 32  1  0  0  0
 32 33  1  0  0  0
 33 34  1  0  0  0
 34 35  2  0  0  0
 34 36  2  0  0  0
 34 37  1  0  0  0
 37 38  1  0  0  0
  9 10  1  0  0  0
 10 11  2  0  0  0
 10 12  1  0  0  0
 12 13  2  0  0  0
 13 14  1  0  0  0
 14 15  2  0  0  0
 15 16  1  0  0  0
 15 17  1  0  0  0
 17 18  2  0  0  0
  7  2  1  0  0  0
 38 31  1  0  0  0
 18 12  1  0  0  0
 28 19  1  0  0  0
 18  7  1  0  0  0
 28 23  1  0  0  0
M  END
> <minimizedAffinity>
-9.31815

> <CNNscore>
0.1775518954

> <CNNaffinity>
6.4737272263

> <CNN_VS>
1.1494225264

> <CNNaffinity_variance>
0.1149859875

$$$$



 38 43  0  0  0  0  0  0  0  0999 V2000
   -7.0266   -4.2844  -27.1496 C   0  0  0  0  0  0  0  0  0  0  0  0
   -7.3746   -3.2430  -26.1276 C   0  0  0  0  0  0  0  0  0  0  0  0
   -8.8101   -3.3316  -25.7015 C   0  0  0  0  0  0  0  0  0  0  0  0
   -9.0592   -2.2568  -24.6853 N   0  0  0  0  0  0  0  0  0  0  0  0
   -7.7776   -1.5040  -24.4832 C   0  0  0  0  0  0  0  0  0  0  0  0
   -7.5730   -0.3451  -23.5531 O   0  0  0  0  0  0  0  0  0  0  0  0
   -6.7365   -2.1135  -25.3746 C   0  0  0  0  0  0  0  0  0  0  0  0
   -6.2379   -0.9616  -24.5534 C   0  0  0  0  0  0  0  0  0  0  0  0
   -4.8095   -0.5192  -24.6711 N   0  0  0  0  0  0  0  0  0  0  0  0
   -3.8796   -1.2288  -25.6101 C   0  0  0  0  0  0  0  0  0  0  0  0
   -2.4511   -0.7865  -25.7279 O   0  0  0  0  0  0  0  0  0  0  0  0
   -4.3781   -2.3808  -26.4314 C   0  0  0  0  0  0  0  0  0  0  0  0
   -3.4482   -3.0904  -27.3704 C   0  0  0  0  0  0  0  0  0  0  0  0
   -3.9467   -4.2423  -28.1916 C   0  0  0  0  0  0  0  0  0  0  0  0
   -5.3752   -4.6847  -28.0738 C   0  0  0  0  0  0  0  0  0  0  0  0
   -5.8737   -5.8367  -28.8951 Cl  0  0  0  0  0  0  0  0  0  0  0  0
   -6.3051   -3.9751  -27.1349 C   0  0  0  0  0  0  0  0  0  0  0  0
   -5.8065   -2.8232  -26.3136 C   0  0  0  0  0  0  0  0  0  0  0  0
  -10.3612   -1.9829  -23.9926 C   0  0  0  0  0  0  0  0  0  0  0  0
  -11.1531   -3.1153  -23.4092 C   0  0  0  0  0  0  0  0  0  0  0  0
  -12.4551   -2.8414  -22.7166 N   0  0  0  0  0  0  0  0  0  0  0  0
  -12.9651   -1.4350  -22.6074 C   0  0  0  0  0  0  0  0  0  0  0  0
  -12.1732   -0.3025  -23.1909 C   0  0  0  0  0  0  0  0  0  0  0  0
  -12.6833    1.1039  -23.0817 C   0  0  0  0  0  0  0  0  0  0  0  0
  -11.8913    2.2363  -23.6652 C   0  0  0  0  0  0  0  0  0  0  0  0
  -10.5894    1.9623  -24.3578 C   0  0  0  0  0  0  0  0  0  0  0  0
  -10.0793    0.5559  -24.4669 C   0  0  0  0  0  0  0  0  0  0  0  0
  -10.8712   -0.5765  -23.8835 C   0  0  0  0  0  0  0  0  0  0  0  0
   -4.3109    0.6328  -23.8499 C   0  0  0  0  0  0  0  0  0  0  0  0
   -3.4769    0.3783  -22.6293 C   0  0  0  0  0  0  0  0  0  0  0  0
   -4.1331   -0.0361  -21.3458 N   0  0  0  0  0  0  0  0  0  0  0  0
   -3.9691    0.8043  -20.1141 C   0  0  0  0  0  0  0  0  0  0  0  0
   -4.6252    0.3898  -18.8305 C   0  0  0  0  0  0  0  0  0  0  0  0
   -5.4454   -0.8651  -18.7785 S   0  0  0  0  0  0  0  0  0  0  0  0
   -6.3132   -1.9602  -18.2330 O   0  0  0  0  0  0  0  0  0  0  0  0
   -5.5828   -0.4050  -17.3574 O   0  0  0  0  0  0  0  0  0  0  0  0
   -5.6093   -1.7055  -20.0100 C   0  0  0  0  0  0  0  0  0  0  0  0
   -4.9532   -1.2910  -21.2937 C   0  0  0  0  0  0  0  0  0  0  0  0
  2  1  1  0  0  0
  2  3  1  0  0  0
  3  4  1  0  0  0
  4 19  1  0  0  0
 19 20  2  0  0  0
 20 21  1  0  0  0
 21 22  2  0  0  0
 22 23  1  0  0  0
 23 24  2  0  0  0
 24 25  1  0  0  0
 25 26  2  0  0  0
 26 27  1  0  0  0
 27 28  2  0  0  0
  4  5  1  0  0  0
  5  6  2  0  0  0
  5  7  1  0  0  0
  7  8  1  0  0  0
  8  9  1  0  0  0
  9 29  1  0  0  0
 29 30  1  0  0  0
 30 31  1  0  0  0
 31 32  1  0  0  0
 32 33  1  0  0  0
 33 34  1  0  0  0
 34 35  2  0  0  0
 34 36  2  0  0  0
 34 37  1  0  0  0
 37 38  1  0  0  0
  9 10  1  0  0  0
 10 11  2  0  0  0
 10 12  1  0  0  0
 12 13  2  0  0  0
 13 14  1  0  0  0
 14 15  2  0  0  0
 15 16  1  0  0  0
 15 17  1  0  0  0
 17 18  2  0  0  0
  7  2  1  0  0  0
 38 31  1  0  0  0
 18 12  1  0  0  0
 28 19  1  0  0  0
 18  7  1  0  0  0
 28 23  1  0  0  0
M  END
> <minimizedAffinity>
-8.26351

> <CNNscore>
0.1755971164

> <CNNaffinity>
6.0243797302

> <CNN_VS>
1.0578637123

> <CNNaffinity_variance>
0.1158292145

$$$$



 38 43  0  0  0  0  0  0  0  0999 V2000
  -11.5580   -1.6491  -23.9034 C   0  0  0  0  0  0  0  0  0  0  0  0
  -10.0966   -1.8647  -24.1643 C   0  0  0  0  0  0  0  0  0  0  0  0
   -9.7989   -3.2816  -24.5565 C   0  0  0  0  0  0  0  0  0  0  0  0
   -8.3224   -3.3962  -24.7946 N   0  0  0  0  0  0  0  0  0  0  0  0
   -7.7076   -2.0501  -24.5495 C   0  0  0  0  0  0  0  0  0  0  0  0
   -6.2517   -1.7102  -24.6724 O   0  0  0  0  0  0  0  0  0  0  0  0
   -8.8041   -1.1036  -24.1600 C   0  0  0  0  0  0  0  0  0  0  0  0
   -7.4420   -0.4765  -24.1986 C   0  0  0  0  0  0  0  0  0  0  0  0
   -7.2753    0.9760  -23.8636 N   0  0  0  0  0  0  0  0  0  0  0  0
   -8.4706    1.8015  -23.4899 C   0  0  0  0  0  0  0  0  0  0  0  0
   -8.3039    3.2541  -23.1548 O   0  0  0  0  0  0  0  0  0  0  0  0
   -9.8328    1.1745  -23.4512 C   0  0  0  0  0  0  0  0  0  0  0  0
  -11.0281    2.0000  -23.0775 C   0  0  0  0  0  0  0  0  0  0  0  0
  -12.3901    1.3729  -23.0389 C   0  0  0  0  0  0  0  0  0  0  0  0
  -12.5569   -0.0796  -23.3739 C   0  0  0  0  0  0  0  0  0  0  0  0
  -13.9190   -0.7067  -23.3353 Cl  0  0  0  0  0  0  0  0  0  0  0  0
  -11.3616   -0.9051  -23.7476 C   0  0  0  0  0  0  0  0  0  0  0  0
   -9.9995   -0.2781  -23.7863 C   0  0  0  0  0  0  0  0  0  0  0  0
   -7.5894   -4.6387  -25.2056 C   0  0  0  0  0  0  0  0  0  0  0  0
   -7.6880   -5.1352  -26.6175 C   0  0  0  0  0  0  0  0  0  0  0  0
   -6.9550   -6.3777  -27.0285 N   0  0  0  0  0  0  0  0  0  0  0  0
   -6.1233   -7.1236  -26.0275 C   0  0  0  0  0  0  0  0  0  0  0  0
   -6.0247   -6.6269  -24.6155 C   0  0  0  0  0  0  0  0  0  0  0  0
   -5.1930   -7.3729  -23.6144 C   0  0  0  0  0  0  0  0  0  0  0  0
   -5.0944   -6.8762  -22.2025 C   0  0  0  0  0  0  0  0  0  0  0  0
   -5.8274   -5.6338  -21.7916 C   0  0  0  0  0  0  0  0  0  0  0  0
   -6.6591   -4.8879  -22.7926 C   0  0  0  0  0  0  0  0  0  0  0  0
   -6.7577   -5.3845  -24.2045 C   0  0  0  0  0  0  0  0  0  0  0  0
   -5.9131    1.6031  -23.9022 C   0  0  0  0  0  0  0  0  0  0  0  0
   -5.2401    2.0138  -22.6262 C   0  0  0  0  0  0  0  0  0  0  0  0
   -5.4151    1.1878  -21.3865 N   0  0  0  0  0  0  0  0  0  0  0  0
   -4.4587    1.3422  -20.2412 C   0  0  0  0  0  0  0  0  0  0  0  0
   -4.6337    0.5163  -19.0014 C   0  0  0  0  0  0  0  0  0  0  0  0
   -5.7650   -0.4642  -18.9068 S   0  0  0  0  0  0  0  0  0  0  0  0
   -6.6738   -1.5181  -18.3471 O   0  0  0  0  0  0  0  0  0  0  0  0
   -5.1243   -0.6757  -17.5672 O   0  0  0  0  0  0  0  0  0  0  0  0
   -6.7213   -0.6186  -20.0521 C   0  0  0  0  0  0  0  0  0  0  0  0
   -6.5463    0.2074  -21.2919 C   0  0  0  0  0  0  0  0  0  0  0  0
  2  1  1  0  0  0
  2  3  1  0  0  0
  3  4  1  0  0  0
  4 19  1  0  0  0
 19 20  2  0  0  0
 20 21  1  0  0  0
 21 22  2  0  0  0
 22 23  1  0  0  0
 23 24  2  0  0  0
 24 25  1  0  0  0
 25 26  2  0  0  0
 26 27  1  0  0  0
 27 28  2  0  0  0
  4  5  1  0  0  0
  5  6  2  0  0  0
  5  7  1  0  0  0
  7  8  1  0  0  0
  8  9  1  0  0  0
  9 29  1  0  0  0
 29 30  1  0  0  0
 30 31  1  0  0  0
 31 32  1  0  0  0
 32 33  1  0  0  0
 33 34  1  0  0  0
 34 35  2  0  0  0
 34 36  2  0  0  0
 34 37  1  0  0  0
 37 38  1  0  0  0
  9 10  1  0  0  0
 10 11  2  0  0  0
 10 12  1  0  0  0
 12 13  2  0  0  0
 13 14  1  0  0  0
 14 15  2  0  0  0
 15 16  1  0  0  0
 15 17  1  0  0  0
 17 18  2  0  0  0
  7  2  1  0  0  0
 38 31  1  0  0  0
 18 12  1  0  0  0
 28 19  1  0  0  0
 18  7  1  0  0  0
 28 23  1  0  0  0
M  END
> <minimizedAffinity>
-9.56318

> <CNNscore>
0.1611545682

> <CNNaffinity>
6.2920327187

> <CNN_VS>
1.0139898062

> <CNNaffinity_variance>
0.3986664414

$$$$
