


 31 34  0  0  0  0  0  0  0  0999 V2000
   -7.2324   -1.8611  -22.1307 N   0  0  0  0  0  0  0  0  0  0  0  0
   -8.0710   -0.6447  -22.3898 C   0  0  0  0  0  0  0  0  0  0  0  0
   -8.1357    0.4529  -21.3694 O   0  0  0  0  0  0  0  0  0  0  0  0
   -7.0383   -5.1539  -25.1918 C   0  0  0  0  0  0  0  0  0  0  0  0
   -6.1106   -3.9795  -25.2936 C   0  0  0  0  0  0  0  0  0  0  0  0
   -6.1753   -2.8820  -24.2733 C   0  0  0  0  0  0  0  0  0  0  0  0
   -7.1677   -2.9587  -23.1510 C   0  0  0  0  0  0  0  0  0  0  0  0
   -8.0954   -4.1330  -23.0492 C   0  0  0  0  0  0  0  0  0  0  0  0
   -8.0307   -5.2306  -24.0696 C   0  0  0  0  0  0  0  0  0  0  0  0
   -6.9736   -6.2514  -26.2121 C   0  0  0  0  0  0  0  0  0  0  0  0
   -8.6376   -6.0841  -28.7027 N   0  0  0  0  0  0  0  0  0  0  0  0
   -7.8056   -6.1678  -27.4574 C   0  0  0  0  0  0  0  0  0  0  0  0
   -6.4585   -1.9799  -20.8512 C   0  0  0  0  0  0  0  0  0  0  0  0
   -5.4902   -0.9040  -20.4578 C   0  0  0  0  0  0  0  0  0  0  0  0
   -5.4776   -0.3843  -19.0507 C   0  0  0  0  0  0  0  0  0  0  0  0
   -4.5092    0.6916  -18.6572 C   0  0  0  0  0  0  0  0  0  0  0  0
   -3.5535    1.2477  -19.6709 C   0  0  0  0  0  0  0  0  0  0  0  0
   -3.5662    0.7280  -21.0779 C   0  0  0  0  0  0  0  0  0  0  0  0
   -2.6105    1.2842  -22.0914 Cl  0  0  0  0  0  0  0  0  0  0  0  0
   -4.5345   -0.3479  -21.4713 C   0  0  0  0  0  0  0  0  0  0  0  0
   -8.8449   -0.5259  -23.6692 C   0  0  0  0  0  0  0  0  0  0  0  0
  -10.1740    0.1694  -23.6800 C   0  0  0  0  0  0  0  0  0  0  0  0
  -10.2605    1.6161  -24.0667 C   0  0  0  0  0  0  0  0  0  0  0  0
  -11.5896    2.3114  -24.0775 N   0  0  0  0  0  0  0  0  0  0  0  0
  -12.8321    1.5600  -23.7016 C   0  0  0  0  0  0  0  0  0  0  0  0
  -12.7457    0.1132  -23.3149 C   0  0  0  0  0  0  0  0  0  0  0  0
  -13.9883   -0.6382  -22.9390 C   0  0  0  0  0  0  0  0  0  0  0  0
  -13.9018   -2.0849  -22.5523 C   0  0  0  0  0  0  0  0  0  0  0  0
  -12.5727   -2.7801  -22.5415 C   0  0  0  0  0  0  0  0  0  0  0  0
  -11.3301   -2.0288  -22.9174 C   0  0  0  0  0  0  0  0  0  0  0  0
  -11.4166   -0.5821  -23.3041 C   0  0  0  0  0  0  0  0  0  0  0  0
 11 12  3  0  0  0
 12 10  1  0  0  0
 10  4  1  0  0  0
  4  5  2  0  0  0
  5  6  1  0  0  0
  6  7  2  0  0  0
  7  1  1  0  0  0
  1 13  1  0  0  0
 13 14  1  0  0  0
 14 15  2  0  0  0
 15 16  1  0  0  0
 16 17  2  0  0  0
 17 18  1  0  0  0
 18 19  1  0  0  0
 18 20  2  0  0  0
  1  2  1  0  0  0
  2  3  2  0  0  0
  2 21  1  0  0  0
 21 22  1  0  0  0
 22 23  2  0  0  0
 23 24  1  0  0  0
 24 25  2  0  0  0
 25 26  1  0  0  0
 26 27  2  0  0  0
 27 28  1  0  0  0
 28 29  2  0  0  0
 29 30  1  0  0  0
 30 31  2  0  0  0
  7  8  1  0  0  0
  8  9  2  0  0  0
  9  4  1  0  0  0
 20 14  1  0  0  0
 31 22  1  0  0  0
 31 26  1  0  0  0
M  END
> <minimizedAffinity>
-7.62635

> <CNNscore>
0.4998466969

> <CNNaffinity>
6.1452817917

> <CNN_VS>
3.0716989040

> <CNNaffinity_variance>
0.0487077385

$$$$



 31 34  0  0  0  0  0  0  0  0999 V2000
   -8.5451   -2.9252  -23.0791 N   0  0  0  0  0  0  0  0  0  0  0  0
   -7.3212   -2.4171  -22.3763 C   0  0  0  0  0  0  0  0  0  0  0  0
   -6.1187   -3.3017  -22.2302 O   0  0  0  0  0  0  0  0  0  0  0  0
  -12.1527   -0.2713  -23.5177 C   0  0  0  0  0  0  0  0  0  0  0  0
  -12.2962   -1.6392  -22.9190 C   0  0  0  0  0  0  0  0  0  0  0  0
  -11.0937   -2.5238  -22.7728 C   0  0  0  0  0  0  0  0  0  0  0  0
   -9.7476   -2.0405  -23.2253 C   0  0  0  0  0  0  0  0  0  0  0  0
   -9.6041   -0.6727  -23.8240 C   0  0  0  0  0  0  0  0  0  0  0  0
  -10.8067    0.2119  -23.9702 C   0  0  0  0  0  0  0  0  0  0  0  0
  -13.3552    0.6133  -23.6639 C   0  0  0  0  0  0  0  0  0  0  0  0
  -13.4368    3.2744  -22.2812 N   0  0  0  0  0  0  0  0  0  0  0  0
  -13.3960    1.9439  -22.9725 C   0  0  0  0  0  0  0  0  0  0  0  0
   -8.5665   -4.3179  -23.6357 C   0  0  0  0  0  0  0  0  0  0  0  0
   -7.3295   -5.1649  -23.5852 C   0  0  0  0  0  0  0  0  0  0  0  0
   -7.1450   -6.1575  -22.4757 C   0  0  0  0  0  0  0  0  0  0  0  0
   -5.9080   -7.0044  -22.4251 C   0  0  0  0  0  0  0  0  0  0  0  0
   -4.8554   -6.8587  -23.4840 C   0  0  0  0  0  0  0  0  0  0  0  0
   -5.0400   -5.8661  -24.5933 C   0  0  0  0  0  0  0  0  0  0  0  0
   -3.9875   -5.7204  -25.6521 Cl  0  0  0  0  0  0  0  0  0  0  0  0
   -6.2770   -5.0192  -24.6439 C   0  0  0  0  0  0  0  0  0  0  0  0
   -7.2998   -1.0243  -21.8197 C   0  0  0  0  0  0  0  0  0  0  0  0
   -6.4904   -0.7187  -20.5944 C   0  0  0  0  0  0  0  0  0  0  0  0
   -6.8268   -1.3777  -19.2897 C   0  0  0  0  0  0  0  0  0  0  0  0
   -6.0174   -1.0720  -18.0644 N   0  0  0  0  0  0  0  0  0  0  0  0
   -4.8715   -0.1074  -18.1438 C   0  0  0  0  0  0  0  0  0  0  0  0
   -4.5350    0.5516  -19.4487 C   0  0  0  0  0  0  0  0  0  0  0  0
   -3.3891    1.5163  -19.5281 C   0  0  0  0  0  0  0  0  0  0  0  0
   -3.0526    2.1753  -20.8329 C   0  0  0  0  0  0  0  0  0  0  0  0
   -3.8621    1.8696  -22.0582 C   0  0  0  0  0  0  0  0  0  0  0  0
   -5.0080    0.9050  -21.9787 C   0  0  0  0  0  0  0  0  0  0  0  0
   -5.3444    0.2460  -20.6740 C   0  0  0  0  0  0  0  0  0  0  0  0
 11 12  3  0  0  0
 12 10  1  0  0  0
 10  4  1  0  0  0
  4  5  2  0  0  0
  5  6  1  0  0  0
  6  7  2  0  0  0
  7  1  1  0  0  0
  1 13  1  0  0  0
 13 14  1  0  0  0
 14 15  2  0  0  0
 15 16  1  0  0  0
 16 17  2  0  0  0
 17 18  1  0  0  0
 18 19  1  0  0  0
 18 20  2  0  0  0
  1  2  1  0  0  0
  2  3  2  0  0  0
  2 21  1  0  0  0
 21 22  1  0  0  0
 22 23  2  0  0  0
 23 24  1  0  0  0
 24 25  2  0  0  0
 25 26  1  0  0  0
 26 27  2  0  0  0
 27 28  1  0  0  0
 28 29  2  0  0  0
 29 30  1  0  0  0
 30 31  2  0  0  0
  7  8  1  0  0  0
  8  9  2  0  0  0
  9  4  1  0  0  0
 20 14  1  0  0  0
 31 22  1  0  0  0
 31 26  1  0  0  0
M  END
> <minimizedAffinity>
-7.99507

> <CNNscore>
0.4941502512

> <CNNaffinity>
6.1572446823

> <CNN_VS>
3.0426039696

> <CNNaffinity_variance>
0.3541413844

$$$$



 31 34  0  0  0  0  0  0  0  0999 V2000
   -8.3358   -1.5658  -23.3904 N   0  0  0  0  0  0  0  0  0  0  0  0
   -7.9465   -0.9579  -22.0755 C   0  0  0  0  0  0  0  0  0  0  0  0
   -8.5453    0.3489  -21.6467 O   0  0  0  0  0  0  0  0  0  0  0  0
   -6.5395   -5.4860  -24.6768 C   0  0  0  0  0  0  0  0  0  0  0  0
   -5.8933   -4.1952  -25.0845 C   0  0  0  0  0  0  0  0  0  0  0  0
   -6.4921   -2.8885  -24.6558 C   0  0  0  0  0  0  0  0  0  0  0  0
   -7.7371   -2.8725  -23.8192 C   0  0  0  0  0  0  0  0  0  0  0  0
   -8.3832   -4.1633  -23.4114 C   0  0  0  0  0  0  0  0  0  0  0  0
   -7.7844   -5.4701  -23.8402 C   0  0  0  0  0  0  0  0  0  0  0  0
   -5.9408   -6.7927  -25.1056 C   0  0  0  0  0  0  0  0  0  0  0  0
   -2.9729   -7.0348  -25.4711 N   0  0  0  0  0  0  0  0  0  0  0  0
   -4.4568   -6.9138  -25.2883 C   0  0  0  0  0  0  0  0  0  0  0  0
   -9.3240   -0.8668  -24.2765 C   0  0  0  0  0  0  0  0  0  0  0  0
  -10.7524   -0.7247  -23.8411 C   0  0  0  0  0  0  0  0  0  0  0  0
  -11.5035   -1.9191  -23.3317 C   0  0  0  0  0  0  0  0  0  0  0  0
  -12.9319   -1.7770  -22.8963 C   0  0  0  0  0  0  0  0  0  0  0  0
  -13.6091   -0.4406  -22.9704 C   0  0  0  0  0  0  0  0  0  0  0  0
  -12.8580    0.7536  -23.4798 C   0  0  0  0  0  0  0  0  0  0  0  0
  -13.5353    2.0900  -23.5539 Cl  0  0  0  0  0  0  0  0  0  0  0  0
  -11.4296    0.6116  -23.9152 C   0  0  0  0  0  0  0  0  0  0  0  0
   -6.9584   -1.6567  -21.1894 C   0  0  0  0  0  0  0  0  0  0  0  0
   -6.2279   -0.8883  -20.1283 C   0  0  0  0  0  0  0  0  0  0  0  0
   -6.7241   -0.9073  -18.7128 C   0  0  0  0  0  0  0  0  0  0  0  0
   -5.9936   -0.1389  -17.6517 N   0  0  0  0  0  0  0  0  0  0  0  0
   -4.7671    0.6485  -18.0060 C   0  0  0  0  0  0  0  0  0  0  0  0
   -4.2709    0.6675  -19.4214 C   0  0  0  0  0  0  0  0  0  0  0  0
   -3.0444    1.4549  -19.7757 C   0  0  0  0  0  0  0  0  0  0  0  0
   -2.5483    1.4739  -21.1911 C   0  0  0  0  0  0  0  0  0  0  0  0
   -3.2787    0.7055  -22.2523 C   0  0  0  0  0  0  0  0  0  0  0  0
   -4.5052   -0.0819  -21.8980 C   0  0  0  0  0  0  0  0  0  0  0  0
   -5.0013   -0.1009  -20.4826 C   0  0  0  0  0  0  0  0  0  0  0  0
 11 12  3  0  0  0
 12 10  1  0  0  0
 10  4  1  0  0  0
  4  5  2  0  0  0
  5  6  1  0  0  0
  6  7  2  0  0  0
  7  1  1  0  0  0
  1 13  1  0  0  0
 13 14  1  0  0  0
 14 15  2  0  0  0
 15 16  1  0  0  0
 16 17  2  0  0  0
 17 18  1  0  0  0
 18 19  1  0  0  0
 18 20  2  0  0  0
  1  2  1  0  0  0
  2  3  2  0  0  0
  2 21  1  0  0  0
 21 22  1  0  0  0
 22 23  2  0  0  0
 23 24  1  0  0  0
 24 25  2  0  0  0
 25 26  1  0  0  0
 26 27  2  0  0  0
 27 28  1  0  0  0
 28 29  2  0  0  0
 29 30  1  0  0  0
 30 31  2  0  0  0
  7  8  1  0  0  0
  8  9  2  0  0  0
  9  4  1  0  0  0
 20 14  1  0  0  0
 31 22  1  0  0  0
 31 26  1  0  0  0
M  END
> <minimizedAffinity>
-7.13870

> <CNNscore>
0.4802728891

> <CNNaffinity>
6.0190205574

> <CNN_VS>
2.8907723427

> <CNNaffinity_variance>
0.1876147836

$$$$



 31 34  0  0  0  0  0  0  0  0999 V2000
   -8.3495   -3.0660  -22.7540 N   0  0  0  0  0  0  0  0  0  0  0  0
   -7.1325   -2.4484  -22.1316 C   0  0  0  0  0  0  0  0  0  0  0  0
   -5.9142   -3.2853  -21.8756 O   0  0  0  0  0  0  0  0  0  0  0  0
  -12.0041   -0.5553  -23.5222 C   0  0  0  0  0  0  0  0  0  0  0  0
  -10.6459   -0.0348  -23.8888 C   0  0  0  0  0  0  0  0  0  0  0  0
   -9.4277   -0.8717  -23.6328 C   0  0  0  0  0  0  0  0  0  0  0  0
   -9.5677   -2.2292  -23.0101 C   0  0  0  0  0  0  0  0  0  0  0  0
  -10.9258   -2.7497  -22.6434 C   0  0  0  0  0  0  0  0  0  0  0  0
  -12.1441   -1.9127  -22.8995 C   0  0  0  0  0  0  0  0  0  0  0  0
  -13.2223    0.2815  -23.7782 C   0  0  0  0  0  0  0  0  0  0  0  0
  -13.4127    3.0452  -22.6267 N   0  0  0  0  0  0  0  0  0  0  0  0
  -13.3175    1.6634  -23.2025 C   0  0  0  0  0  0  0  0  0  0  0  0
   -8.3482   -4.5207  -23.1204 C   0  0  0  0  0  0  0  0  0  0  0  0
   -7.9648   -4.9445  -24.5072 C   0  0  0  0  0  0  0  0  0  0  0  0
   -6.5435   -5.3148  -24.8123 C   0  0  0  0  0  0  0  0  0  0  0  0
   -6.1601   -5.7386  -26.1991 C   0  0  0  0  0  0  0  0  0  0  0  0
   -7.1978   -5.7920  -27.2809 C   0  0  0  0  0  0  0  0  0  0  0  0
   -8.6190   -5.4217  -26.9759 C   0  0  0  0  0  0  0  0  0  0  0  0
   -9.6567   -5.4751  -28.0577 Cl  0  0  0  0  0  0  0  0  0  0  0  0
   -9.0024   -4.9979  -25.5890 C   0  0  0  0  0  0  0  0  0  0  0  0
   -7.1336   -0.9938  -21.7653 C   0  0  0  0  0  0  0  0  0  0  0  0
   -6.4013   -0.5279  -20.5419 C   0  0  0  0  0  0  0  0  0  0  0  0
   -6.9331   -0.8570  -19.1786 C   0  0  0  0  0  0  0  0  0  0  0  0
   -6.2007   -0.3911  -17.9552 N   0  0  0  0  0  0  0  0  0  0  0  0
   -4.9365    0.4039  -18.0953 C   0  0  0  0  0  0  0  0  0  0  0  0
   -4.4046    0.7330  -19.4587 C   0  0  0  0  0  0  0  0  0  0  0  0
   -3.1403    1.5280  -19.5987 C   0  0  0  0  0  0  0  0  0  0  0  0
   -2.6084    1.8570  -20.9621 C   0  0  0  0  0  0  0  0  0  0  0  0
   -3.3408    1.3911  -22.1854 C   0  0  0  0  0  0  0  0  0  0  0  0
   -4.6051    0.5961  -22.0454 C   0  0  0  0  0  0  0  0  0  0  0  0
   -5.1369    0.2671  -20.6820 C   0  0  0  0  0  0  0  0  0  0  0  0
 11 12  3  0  0  0
 12 10  1  0  0  0
 10  4  1  0  0  0
  4  5  2  0  0  0
  5  6  1  0  0  0
  6  7  2  0  0  0
  7  1  1  0  0  0
  1 13  1  0  0  0
 13 14  1  0  0  0
 14 15  2  0  0  0
 15 16  1  0  0  0
 16 17  2  0  0  0
 17 18  1  0  0  0
 18 19  1  0  0  0
 18 20  2  0  0  0
  1  2  1  0  0  0
  2  3  2  0  0  0
  2 21  1  0  0  0
 21 22  1  0  0  0
 22 23  2  0  0  0
 23 24  1  0  0  0
 24 25  2  0  0  0
 25 26  1  0  0  0
 26 27  2  0  0  0
 27 28  1  0  0  0
 28 29  2  0  0  0
 29 30  1  0  0  0
 30 31  2  0  0  0
  7  8  1  0  0  0
  8  9  2  0  0  0
  9  4  1  0  0  0
 20 14  1  0  0  0
 31 22  1  0  0  0
 31 26  1  0  0  0
M  END
> <minimizedAffinity>
-7.88666

> <CNNscore>
0.3838697374

> <CNNaffinity>
6.0347523689

> <CNN_VS>
2.3165588379

> <CNNaffinity_variance>
0.2837636769

$$$$



 31 34  0  0  0  0  0  0  0  0999 V2000
   -8.6679   -1.7097  -22.3749 N   0  0  0  0  0  0  0  0  0  0  0  0
   -9.0300   -0.2690  -22.5834 C   0  0  0  0  0  0  0  0  0  0  0  0
   -8.6526    0.7556  -21.5549 O   0  0  0  0  0  0  0  0  0  0  0  0
   -9.8000   -4.7837  -25.4601 C   0  0  0  0  0  0  0  0  0  0  0  0
   -8.3561   -4.5540  -25.1249 C   0  0  0  0  0  0  0  0  0  0  0  0
   -7.9787   -3.5293  -24.0965 C   0  0  0  0  0  0  0  0  0  0  0  0
   -9.0453   -2.7343  -23.4033 C   0  0  0  0  0  0  0  0  0  0  0  0
  -10.4892   -2.9640  -23.7385 C   0  0  0  0  0  0  0  0  0  0  0  0
  -10.8665   -3.9887  -24.7670 C   0  0  0  0  0  0  0  0  0  0  0  0
  -10.1774   -5.8083  -26.4885 C   0  0  0  0  0  0  0  0  0  0  0  0
   -8.3891   -6.2952  -28.8476 N   0  0  0  0  0  0  0  0  0  0  0  0
   -9.2832   -6.0517  -27.6681 C   0  0  0  0  0  0  0  0  0  0  0  0
   -7.9284   -2.1256  -21.1378 C   0  0  0  0  0  0  0  0  0  0  0  0
   -6.7696   -1.3096  -20.6467 C   0  0  0  0  0  0  0  0  0  0  0  0
   -6.7015   -0.8941  -19.2070 C   0  0  0  0  0  0  0  0  0  0  0  0
   -5.5427   -0.0781  -18.7159 C   0  0  0  0  0  0  0  0  0  0  0  0
   -4.4519    0.3224  -19.6646 C   0  0  0  0  0  0  0  0  0  0  0  0
   -4.5200   -0.0932  -21.1042 C   0  0  0  0  0  0  0  0  0  0  0  0
   -3.4292    0.3073  -22.0528 Cl  0  0  0  0  0  0  0  0  0  0  0  0
   -5.6788   -0.9092  -21.5953 C   0  0  0  0  0  0  0  0  0  0  0  0
   -9.7694    0.1469  -23.8204 C   0  0  0  0  0  0  0  0  0  0  0  0
  -10.9337    1.0871  -23.7177 C   0  0  0  0  0  0  0  0  0  0  0  0
  -12.3138    0.5488  -23.4818 C   0  0  0  0  0  0  0  0  0  0  0  0
  -13.4781    1.4890  -23.3791 N   0  0  0  0  0  0  0  0  0  0  0  0
  -13.2623    2.9674  -23.5123 C   0  0  0  0  0  0  0  0  0  0  0  0
  -11.8822    3.5057  -23.7483 C   0  0  0  0  0  0  0  0  0  0  0  0
  -11.6665    4.9841  -23.8815 C   0  0  0  0  0  0  0  0  0  0  0  0
  -10.2864    5.5223  -24.1174 C   0  0  0  0  0  0  0  0  0  0  0  0
   -9.1221    4.5822  -24.2201 C   0  0  0  0  0  0  0  0  0  0  0  0
   -9.3379    3.1038  -24.0869 C   0  0  0  0  0  0  0  0  0  0  0  0
  -10.7179    2.5655  -23.8509 C   0  0  0  0  0  0  0  0  0  0  0  0
 11 12  3  0  0  0
 12 10  1  0  0  0
 10  4  1  0  0  0
  4  5  2  0  0  0
  5  6  1  0  0  0
  6  7  2  0  0  0
  7  1  1  0  0  0
  1 13  1  0  0  0
 13 14  1  0  0  0
 14 15  2  0  0  0
 15 16  1  0  0  0
 16 17  2  0  0  0
 17 18  1  0  0  0
 18 19  1  0  0  0
 18 20  2  0  0  0
  1  2  1  0  0  0
  2  3  2  0  0  0
  2 21  1  0  0  0
 21 22  1  0  0  0
 22 23  2  0  0  0
 23 24  1  0  0  0
 24 25  2  0  0  0
 25 26  1  0  0  0
 26 27  2  0  0  0
 27 28  1  0  0  0
 28 29  2  0  0  0
 29 30  1  0  0  0
 30 31  2  0  0  0
  7  8  1  0  0  0
  8  9  2  0  0  0
  9  4  1  0  0  0
 20 14  1  0  0  0
 31 22  1  0  0  0
 31 26  1  0  0  0
M  END
> <minimizedAffinity>
-7.85997

> <CNNscore>
0.3583222628

> <CNNaffinity>
5.9758210182

> <CNN_VS>
2.1412696838

> <CNNaffinity_variance>
0.3200041354

$$$$



 31 34  0  0  0  0  0  0  0  0999 V2000
   -9.9069   -1.9273  -23.0200 N   0  0  0  0  0  0  0  0  0  0  0  0
   -8.6064   -1.7951  -22.2842 C   0  0  0  0  0  0  0  0  0  0  0  0
   -7.7137   -2.9892  -22.1186 O   0  0  0  0  0  0  0  0  0  0  0  0
  -12.5851    1.6546  -23.5168 C   0  0  0  0  0  0  0  0  0  0  0  0
  -13.1767    0.2771  -23.4660 C   0  0  0  0  0  0  0  0  0  0  0  0
  -12.2840   -0.9168  -23.3004 C   0  0  0  0  0  0  0  0  0  0  0  0
  -10.7996   -0.7333  -23.1856 C   0  0  0  0  0  0  0  0  0  0  0  0
  -10.2080    0.6442  -23.2364 C   0  0  0  0  0  0  0  0  0  0  0  0
  -11.1009    1.8382  -23.4020 C   0  0  0  0  0  0  0  0  0  0  0  0
  -13.4778    2.8486  -23.6824 C   0  0  0  0  0  0  0  0  0  0  0  0
  -12.8796    4.8865  -25.8012 N   0  0  0  0  0  0  0  0  0  0  0  0
  -13.1787    3.8676  -24.7418 C   0  0  0  0  0  0  0  0  0  0  0  0
  -10.3146   -3.2535  -23.5901 C   0  0  0  0  0  0  0  0  0  0  0  0
   -9.7707   -3.6994  -24.9150 C   0  0  0  0  0  0  0  0  0  0  0  0
  -10.3294   -4.9212  -25.5823 C   0  0  0  0  0  0  0  0  0  0  0  0
   -9.7855   -5.3671  -26.9072 C   0  0  0  0  0  0  0  0  0  0  0  0
   -8.6828   -4.5912  -27.5648 C   0  0  0  0  0  0  0  0  0  0  0  0
   -8.1242   -3.3695  -26.8975 C   0  0  0  0  0  0  0  0  0  0  0  0
   -7.0216   -2.5937  -27.5551 Cl  0  0  0  0  0  0  0  0  0  0  0  0
   -8.6681   -2.9236  -25.5726 C   0  0  0  0  0  0  0  0  0  0  0  0
   -8.1987   -0.4690  -21.7141 C   0  0  0  0  0  0  0  0  0  0  0  0
   -7.1666   -0.4052  -20.6274 C   0  0  0  0  0  0  0  0  0  0  0  0
   -7.3289   -1.2361  -19.3892 C   0  0  0  0  0  0  0  0  0  0  0  0
   -6.2969   -1.1723  -18.3025 N   0  0  0  0  0  0  0  0  0  0  0  0
   -5.1026   -0.2775  -18.4541 C   0  0  0  0  0  0  0  0  0  0  0  0
   -4.9402    0.5535  -19.6923 C   0  0  0  0  0  0  0  0  0  0  0  0
   -3.7459    1.4482  -19.8439 C   0  0  0  0  0  0  0  0  0  0  0  0
   -3.5837    2.2791  -21.0821 C   0  0  0  0  0  0  0  0  0  0  0  0
   -4.6157    2.2153  -22.1687 C   0  0  0  0  0  0  0  0  0  0  0  0
   -5.8100    1.3206  -22.0172 C   0  0  0  0  0  0  0  0  0  0  0  0
   -5.9723    0.4896  -20.7790 C   0  0  0  0  0  0  0  0  0  0  0  0
 11 12  3  0  0  0
 12 10  1  0  0  0
 10  4  1  0  0  0
  4  5  2  0  0  0
  5  6  1  0  0  0
  6  7  2  0  0  0
  7  1  1  0  0  0
  1 13  1  0  0  0
 13 14  1  0  0  0
 14 15  2  0  0  0
 15 16  1  0  0  0
 16 17  2  0  0  0
 17 18  1  0  0  0
 18 19  1  0  0  0
 18 20  2  0  0  0
  1  2  1  0  0  0
  2  3  2  0  0  0
  2 21  1  0  0  0
 21 22  1  0  0  0
 22 23  2  0  0  0
 23 24  1  0  0  0
 24 25  2  0  0  0
 25 26  1  0  0  0
 26 27  2  0  0  0
 27 28  1  0  0  0
 28 29  2  0  0  0
 29 30  1  0  0  0
 30 31  2  0  0  0
  7  8  1  0  0  0
  8  9  2  0  0  0
  9  4  1  0  0  0
 20 14  1  0  0  0
 31 22  1  0  0  0
 31 26  1  0  0  0
M  END
> <minimizedAffinity>
-7.79215

> <CNNscore>
0.3530855477

> <CNNaffinity>
5.9680261612

> <CNN_VS>
2.1072237492

> <CNNaffinity_variance>
0.2493544370

$$$$



 31 34  0  0  0  0  0  0  0  0999 V2000
  -10.0353   -1.1287  -22.8322 N   0  0  0  0  0  0  0  0  0  0  0  0
  -10.8534   -0.1148  -23.5756 C   0  0  0  0  0  0  0  0  0  0  0  0
  -12.0950   -0.5398  -24.3022 O   0  0  0  0  0  0  0  0  0  0  0  0
   -6.3106    0.1461  -20.6525 C   0  0  0  0  0  0  0  0  0  0  0  0
   -6.7197    0.8490  -21.9129 C   0  0  0  0  0  0  0  0  0  0  0  0
   -7.9613    0.4241  -22.6394 C   0  0  0  0  0  0  0  0  0  0  0  0
   -8.7938   -0.7038  -22.1056 C   0  0  0  0  0  0  0  0  0  0  0  0
   -8.3846   -1.4067  -20.8453 C   0  0  0  0  0  0  0  0  0  0  0  0
   -7.1430   -0.9818  -20.1187 C   0  0  0  0  0  0  0  0  0  0  0  0
   -5.0690    0.5710  -19.9260 C   0  0  0  0  0  0  0  0  0  0  0  0
   -2.4898    0.8917  -21.4243 N   0  0  0  0  0  0  0  0  0  0  0  0
   -3.7793    0.7313  -20.6751 C   0  0  0  0  0  0  0  0  0  0  0  0
  -10.4589   -2.5676  -22.8153 C   0  0  0  0  0  0  0  0  0  0  0  0
   -9.8556   -3.5384  -23.7868 C   0  0  0  0  0  0  0  0  0  0  0  0
  -10.6086   -3.9264  -25.0248 C   0  0  0  0  0  0  0  0  0  0  0  0
  -10.0053   -4.8972  -25.9962 C   0  0  0  0  0  0  0  0  0  0  0  0
   -8.6490   -5.4800  -25.7296 C   0  0  0  0  0  0  0  0  0  0  0  0
   -7.8961   -5.0920  -24.4916 C   0  0  0  0  0  0  0  0  0  0  0  0
   -6.5400   -5.6748  -24.2251 Cl  0  0  0  0  0  0  0  0  0  0  0  0
   -8.4994   -4.1212  -23.5202 C   0  0  0  0  0  0  0  0  0  0  0  0
  -10.4299    1.3241  -23.5925 C   0  0  0  0  0  0  0  0  0  0  0  0
  -11.4516    2.4086  -23.4199 C   0  0  0  0  0  0  0  0  0  0  0  0
  -12.5174    2.2754  -22.3729 C   0  0  0  0  0  0  0  0  0  0  0  0
  -13.5391    3.3600  -22.2003 N   0  0  0  0  0  0  0  0  0  0  0  0
  -13.4950    4.5778  -23.0748 C   0  0  0  0  0  0  0  0  0  0  0  0
  -12.4292    4.7112  -24.1219 C   0  0  0  0  0  0  0  0  0  0  0  0
  -12.3852    5.9291  -24.9964 C   0  0  0  0  0  0  0  0  0  0  0  0
  -11.3194    6.0624  -26.0434 C   0  0  0  0  0  0  0  0  0  0  0  0
  -10.2977    4.9778  -26.2160 C   0  0  0  0  0  0  0  0  0  0  0  0
  -10.3418    3.7599  -25.3415 C   0  0  0  0  0  0  0  0  0  0  0  0
  -11.4075    3.6266  -24.2945 C   0  0  0  0  0  0  0  0  0  0  0  0
 11 12  3  0  0  0
 12 10  1  0  0  0
 10  4  1  0  0  0
  4  5  2  0  0  0
  5  6  1  0  0  0
  6  7  2  0  0  0
  7  1  1  0  0  0
  1 13  1  0  0  0
 13 14  1  0  0  0
 14 15  2  0  0  0
 15 16  1  0  0  0
 16 17  2  0  0  0
 17 18  1  0  0  0
 18 19  1  0  0  0
 18 20  2  0  0  0
  1  2  1  0  0  0
  2  3  2  0  0  0
  2 21  1  0  0  0
 21 22  1  0  0  0
 22 23  2  0  0  0
 23 24  1  0  0  0
 24 25  2  0  0  0
 25 26  1  0  0  0
 26 27  2  0  0  0
 27 28  1  0  0  0
 28 29  2  0  0  0
 29 30  1  0  0  0
 30 31  2  0  0  0
  7  8  1  0  0  0
  8  9  2  0  0  0
  9  4  1  0  0  0
 20 14  1  0  0  0
 31 22  1  0  0  0
 31 26  1  0  0  0
M  END
> <minimizedAffinity>
-7.60724

> <CNNscore>
0.3402543962

> <CNNaffinity>
5.9340605736

> <CNN_VS>
2.0190901756

> <CNNaffinity_variance>
0.1650742441

$$$$



 31 34  0  0  0  0  0  0  0  0999 V2000
   -8.9660   -1.5598  -22.5140 N   0  0  0  0  0  0  0  0  0  0  0  0
   -9.3523   -0.1263  -22.7277 C   0  0  0  0  0  0  0  0  0  0  0  0
   -9.0081    0.9053  -21.6944 O   0  0  0  0  0  0  0  0  0  0  0  0
   -9.9985   -4.6544  -25.6136 C   0  0  0  0  0  0  0  0  0  0  0  0
  -11.0697   -4.0991  -24.7224 C   0  0  0  0  0  0  0  0  0  0  0  0
  -10.7255   -3.0676  -23.6892 C   0  0  0  0  0  0  0  0  0  0  0  0
   -9.3102   -2.5913  -23.5472 C   0  0  0  0  0  0  0  0  0  0  0  0
   -8.2390   -3.1467  -24.4384 C   0  0  0  0  0  0  0  0  0  0  0  0
   -8.5833   -4.1782  -25.4716 C   0  0  0  0  0  0  0  0  0  0  0  0
  -10.3427   -5.6859  -26.6468 C   0  0  0  0  0  0  0  0  0  0  0  0
   -8.4017   -6.3105  -28.8474 N   0  0  0  0  0  0  0  0  0  0  0  0
   -9.3722   -5.9982  -27.7471 C   0  0  0  0  0  0  0  0  0  0  0  0
   -8.2356   -1.9619  -21.2670 C   0  0  0  0  0  0  0  0  0  0  0  0
   -6.9542   -1.2767  -20.8945 C   0  0  0  0  0  0  0  0  0  0  0  0
   -5.8918   -1.0584  -21.9307 C   0  0  0  0  0  0  0  0  0  0  0  0
   -4.6104   -0.3732  -21.5582 C   0  0  0  0  0  0  0  0  0  0  0  0
   -4.3916    0.0936  -20.1495 C   0  0  0  0  0  0  0  0  0  0  0  0
   -5.4540   -0.1248  -19.1135 C   0  0  0  0  0  0  0  0  0  0  0  0
   -5.2351    0.3421  -17.7049 Cl  0  0  0  0  0  0  0  0  0  0  0  0
   -6.7353   -0.8099  -19.4859 C   0  0  0  0  0  0  0  0  0  0  0  0
  -10.0828    0.2758  -23.9745 C   0  0  0  0  0  0  0  0  0  0  0  0
  -10.1080    1.7145  -24.3981 C   0  0  0  0  0  0  0  0  0  0  0  0
   -9.1317    2.2120  -25.4224 C   0  0  0  0  0  0  0  0  0  0  0  0
   -9.1569    3.6508  -25.8460 N   0  0  0  0  0  0  0  0  0  0  0  0
  -10.1584    4.5920  -25.2452 C   0  0  0  0  0  0  0  0  0  0  0  0
  -11.1348    4.0945  -24.2208 C   0  0  0  0  0  0  0  0  0  0  0  0
  -12.1363    5.0358  -23.6201 C   0  0  0  0  0  0  0  0  0  0  0  0
  -13.1126    4.5383  -22.5957 C   0  0  0  0  0  0  0  0  0  0  0  0
  -13.0874    3.0996  -22.1722 C   0  0  0  0  0  0  0  0  0  0  0  0
  -12.0859    2.1583  -22.7730 C   0  0  0  0  0  0  0  0  0  0  0  0
  -11.1096    2.6558  -23.7973 C   0  0  0  0  0  0  0  0  0  0  0  0
 11 12  3  0  0  0
 12 10  1  0  0  0
 10  4  1  0  0  0
  4  5  2  0  0  0
  5  6  1  0  0  0
  6  7  2  0  0  0
  7  1  1  0  0  0
  1 13  1  0  0  0
 13 14  1  0  0  0
 14 15  2  0  0  0
 15 16  1  0  0  0
 16 17  2  0  0  0
 17 18  1  0  0  0
 18 19  1  0  0  0
 18 20  2  0  0  0
  1  2  1  0  0  0
  2  3  2  0  0  0
  2 21  1  0  0  0
 21 22  1  0  0  0
 22 23  2  0  0  0
 23 24  1  0  0  0
 24 25  2  0  0  0
 25 26  1  0  0  0
 26 27  2  0  0  0
 27 28  1  0  0  0
 28 29  2  0  0  0
 29 30  1  0  0  0
 30 31  2  0  0  0
  7  8  1  0  0  0
  8  9  2  0  0  0
  9  4  1  0  0  0
 20 14  1  0  0  0
 31 22  1  0  0  0
 31 26  1  0  0  0
M  END
> <minimizedAffinity>
-7.98849

> <CNNscore>
0.3263134956

> <CNNaffinity>
5.8590354919

> <CNN_VS>
1.9118824005

> <CNNaffinity_variance>
0.3414409757

$$$$



 31 34  0  0  0  0  0  0  0  0999 V2000
   -8.3726   -1.7310  -23.7217 N   0  0  0  0  0  0  0  0  0  0  0  0
   -7.4973   -1.8557  -22.5100 C   0  0  0  0  0  0  0  0  0  0  0  0
   -6.2398   -2.6711  -22.5738 O   0  0  0  0  0  0  0  0  0  0  0  0
  -12.1449    0.7150  -23.5305 C   0  0  0  0  0  0  0  0  0  0  0  0
  -12.2174   -0.7818  -23.4648 C   0  0  0  0  0  0  0  0  0  0  0  0
  -10.9600   -1.5972  -23.5285 C   0  0  0  0  0  0  0  0  0  0  0  0
   -9.6300   -0.9157  -23.6580 C   0  0  0  0  0  0  0  0  0  0  0  0
   -9.5574    0.5811  -23.7236 C   0  0  0  0  0  0  0  0  0  0  0  0
  -10.8149    1.3964  -23.6599 C   0  0  0  0  0  0  0  0  0  0  0  0
  -13.4023    1.5303  -23.4667 C   0  0  0  0  0  0  0  0  0  0  0  0
  -13.4766    4.2706  -24.6855 N   0  0  0  0  0  0  0  0  0  0  0  0
  -13.4394    2.9005  -24.0761 C   0  0  0  0  0  0  0  0  0  0  0  0
   -7.9904   -2.4218  -24.9972 C   0  0  0  0  0  0  0  0  0  0  0  0
   -8.2489   -3.8902  -25.1615 C   0  0  0  0  0  0  0  0  0  0  0  0
   -7.3456   -4.8892  -24.5011 C   0  0  0  0  0  0  0  0  0  0  0  0
   -7.6042   -6.3576  -24.6653 C   0  0  0  0  0  0  0  0  0  0  0  0
   -8.7660   -6.8270  -25.4900 C   0  0  0  0  0  0  0  0  0  0  0  0
   -9.6692   -5.8280  -26.1503 C   0  0  0  0  0  0  0  0  0  0  0  0
  -10.8309   -6.2974  -26.9749 Cl  0  0  0  0  0  0  0  0  0  0  0  0
   -9.4107   -4.3596  -25.9861 C   0  0  0  0  0  0  0  0  0  0  0  0
   -7.8794   -1.1650  -21.2345 C   0  0  0  0  0  0  0  0  0  0  0  0
   -6.8159   -0.7205  -20.2746 C   0  0  0  0  0  0  0  0  0  0  0  0
   -6.7392   -1.3291  -18.9058 C   0  0  0  0  0  0  0  0  0  0  0  0
   -5.6757   -0.8846  -17.9458 N   0  0  0  0  0  0  0  0  0  0  0  0
   -4.6889    0.1684  -18.3547 C   0  0  0  0  0  0  0  0  0  0  0  0
   -4.7655    0.7770  -19.7236 C   0  0  0  0  0  0  0  0  0  0  0  0
   -3.7787    1.8301  -20.1326 C   0  0  0  0  0  0  0  0  0  0  0  0
   -3.8554    2.4386  -21.5014 C   0  0  0  0  0  0  0  0  0  0  0  0
   -4.9189    1.9941  -22.4613 C   0  0  0  0  0  0  0  0  0  0  0  0
   -5.9057    0.9411  -22.0524 C   0  0  0  0  0  0  0  0  0  0  0  0
   -5.8290    0.3326  -20.6836 C   0  0  0  0  0  0  0  0  0  0  0  0
 11 12  3  0  0  0
 12 10  1  0  0  0
 10  4  1  0  0  0
  4  5  2  0  0  0
  5  6  1  0  0  0
  6  7  2  0  0  0
  7  1  1  0  0  0
  1 13  1  0  0  0
 13 14  1  0  0  0
 14 15  2  0  0  0
 15 16  1  0  0  0
 16 17  2  0  0  0
 17 18  1  0  0  0
 18 19  1  0  0  0
 18 20  2  0  0  0
  1  2  1  0  0  0
  2  3  2  0  0  0
  2 21  1  0  0  0
 21 22  1  0  0  0
 22 23  2  0  0  0
 23 24  1  0  0  0
 24 25  2  0  0  0
 25 26  1  0  0  0
 26 27  2  0  0  0
 27 28  1  0  0  0
 28 29  2  0  0  0
 29 30  1  0  0  0
 30 31  2  0  0  0
  7  8  1  0  0  0
  8  9  2  0  0  0
  9  4  1  0  0  0
 20 14  1  0  0  0
 31 22  1  0  0  0
 31 26  1  0  0  0
M  END
> <minimizedAffinity>
-7.84708

> <CNNscore>
0.3168901205

> <CNNaffinity>
5.9308929443

> <CNN_VS>
1.8794413805

> <CNNaffinity_variance>
0.3571629524

$$$$
