


 31 34  0  0  0  0  0  0  0  0999 V2000
    8.9149   -0.9492   22.4279 N   0  0  0  0  0  0  0  0  0  0  0  0
    7.4703   -0.9157   22.0252 C   0  0  0  0  0  0  0  0  0  0  0  0
    6.6949   -2.1944   21.9066 O   0  0  0  0  0  0  0  0  0  0  0  0
   11.2410    2.8864   22.7837 C   0  0  0  0  0  0  0  0  0  0  0  0
    9.7642    2.9262   22.5238 C   0  0  0  0  0  0  0  0  0  0  0  0
    8.9888    1.6477   22.4052 C   0  0  0  0  0  0  0  0  0  0  0  0
    9.6902    0.3293   22.5465 C   0  0  0  0  0  0  0  0  0  0  0  0
   11.1670    0.2895   22.8064 C   0  0  0  0  0  0  0  0  0  0  0  0
   11.9424    1.5681   22.9250 C   0  0  0  0  0  0  0  0  0  0  0  0
   12.0164    4.1650   22.9022 C   0  0  0  0  0  0  0  0  0  0  0  0
   10.6505    6.7959   22.4411 N   0  0  0  0  0  0  0  0  0  0  0  0
   11.3334    5.4805   22.6717 C   0  0  0  0  0  0  0  0  0  0  0  0
    9.5840   -2.2614   22.7120 C   0  0  0  0  0  0  0  0  0  0  0  0
    9.8237   -2.6896   24.1294 C   0  0  0  0  0  0  0  0  0  0  0  0
    8.6667   -3.0789   25.0012 C   0  0  0  0  0  0  0  0  0  0  0  0
    8.9064   -3.5072   26.4186 C   0  0  0  0  0  0  0  0  0  0  0  0
   10.3031   -3.5461   26.9643 C   0  0  0  0  0  0  0  0  0  0  0  0
   11.4601   -3.1567   26.0926 C   0  0  0  0  0  0  0  0  0  0  0  0
   12.8567   -3.1956   26.6384 Cl  0  0  0  0  0  0  0  0  0  0  0  0
   11.2204   -2.7285   24.6752 C   0  0  0  0  0  0  0  0  0  0  0  0
    6.8011    0.3963   21.7411 C   0  0  0  0  0  0  0  0  0  0  0  0
    6.1013    0.6134   20.4323 C   0  0  0  0  0  0  0  0  0  0  0  0
    6.6576    0.0123   19.1756 C   0  0  0  0  0  0  0  0  0  0  0  0
    5.9577    0.2294   17.8667 N   0  0  0  0  0  0  0  0  0  0  0  0
    4.7016    1.0476   17.8146 C   0  0  0  0  0  0  0  0  0  0  0  0
    4.1453    1.6488   19.0713 C   0  0  0  0  0  0  0  0  0  0  0  0
    2.8892    2.4669   19.0191 C   0  0  0  0  0  0  0  0  0  0  0  0
    2.3330    3.0680   20.2757 C   0  0  0  0  0  0  0  0  0  0  0  0
    3.0328    2.8509   21.5846 C   0  0  0  0  0  0  0  0  0  0  0  0
    4.2889    2.0327   21.6368 C   0  0  0  0  0  0  0  0  0  0  0  0
    4.8451    1.4316   20.3801 C   0  0  0  0  0  0  0  0  0  0  0  0
 11 12  3  0  0  0
 12 10  1  0  0  0
 10  4  1  0  0  0
  4  5  2  0  0  0
  5  6  1  0  0  0
  6  7  2  0  0  0
  7  1  1  0  0  0
  1 13  1  0  0  0
 13 14  1  0  0  0
 14 15  2  0  0  0
 15 16  1  0  0  0
 16 17  2  0  0  0
 17 18  1  0  0  0
 18 19  1  0  0  0
 18 20  2  0  0  0
  1  2  1  0  0  0
  2  3  2  0  0  0
  2 21  1  0  0  0
 21 22  1  0  0  0
 22 23  2  0  0  0
 23 24  1  0  0  0
 24 25  2  0  0  0
 25 26  1  0  0  0
 26 27  2  0  0  0
 27 28  1  0  0  0
 28 29  2  0  0  0
 29 30  1  0  0  0
 30 31  2  0  0  0
  7  8  1  0  0  0
  8  9  2  0  0  0
  9  4  1  0  0  0
 20 14  1  0  0  0
 31 22  1  0  0  0
 31 26  1  0  0  0
M  END
> <minimizedAffinity>
-8.42119

> <CNNscore>
0.8037968874

> <CNNaffinity>
6.7176656723

> <CNN_VS>
5.3996386528

> <CNNaffinity_variance>
0.0192777794

$$$$



 31 34  0  0  0  0  0  0  0  0999 V2000
    7.6115   -1.5635   22.7073 N   0  0  0  0  0  0  0  0  0  0  0  0
    6.2804   -2.0944   22.2643 C   0  0  0  0  0  0  0  0  0  0  0  0
    6.0736   -3.5729   22.1179 O   0  0  0  0  0  0  0  0  0  0  0  0
    8.2319    2.8718   23.1466 C   0  0  0  0  0  0  0  0  0  0  0  0
    7.7541    2.0619   24.3153 C   0  0  0  0  0  0  0  0  0  0  0  0
    7.5473    0.5835   24.1689 C   0  0  0  0  0  0  0  0  0  0  0  0
    7.8183   -0.0851   22.8537 C   0  0  0  0  0  0  0  0  0  0  0  0
    8.2961    0.7248   21.6850 C   0  0  0  0  0  0  0  0  0  0  0  0
    8.5029    2.2033   21.8315 C   0  0  0  0  0  0  0  0  0  0  0  0
    8.4387    4.3502   23.2930 C   0  0  0  0  0  0  0  0  0  0  0  0
   11.1359    5.5482   22.7543 N   0  0  0  0  0  0  0  0  0  0  0  0
    9.7873    4.9492   23.0236 C   0  0  0  0  0  0  0  0  0  0  0  0
    8.7359   -2.5111   23.0039 C   0  0  0  0  0  0  0  0  0  0  0  0
   10.0326   -1.9894   23.5482 C   0  0  0  0  0  0  0  0  0  0  0  0
   10.3117   -2.0625   25.0202 C   0  0  0  0  0  0  0  0  0  0  0  0
   11.6084   -1.5407   25.5645 C   0  0  0  0  0  0  0  0  0  0  0  0
   12.6261   -0.9458   24.6368 C   0  0  0  0  0  0  0  0  0  0  0  0
   12.3469   -0.8728   23.1648 C   0  0  0  0  0  0  0  0  0  0  0  0
   13.3646   -0.2779   22.2372 Cl  0  0  0  0  0  0  0  0  0  0  0  0
   11.0502   -1.3945   22.6205 C   0  0  0  0  0  0  0  0  0  0  0  0
    5.1560   -1.1469   21.9678 C   0  0  0  0  0  0  0  0  0  0  0  0
    5.0494   -0.5098   20.6140 C   0  0  0  0  0  0  0  0  0  0  0  0
    5.7498   -1.1245   19.4386 C   0  0  0  0  0  0  0  0  0  0  0  0
    5.6432   -0.4874   18.0848 N   0  0  0  0  0  0  0  0  0  0  0  0
    4.8360    0.7642   17.9063 C   0  0  0  0  0  0  0  0  0  0  0  0
    4.1355    1.3789   19.0817 C   0  0  0  0  0  0  0  0  0  0  0  0
    3.3284    2.6305   18.9033 C   0  0  0  0  0  0  0  0  0  0  0  0
    2.6279    3.2451   20.0786 C   0  0  0  0  0  0  0  0  0  0  0  0
    2.7346    2.6081   21.4325 C   0  0  0  0  0  0  0  0  0  0  0  0
    3.5417    1.3565   21.6109 C   0  0  0  0  0  0  0  0  0  0  0  0
    4.2422    0.7419   20.4355 C   0  0  0  0  0  0  0  0  0  0  0  0
 11 12  3  0  0  0
 12 10  1  0  0  0
 10  4  1  0  0  0
  4  5  2  0  0  0
  5  6  1  0  0  0
  6  7  2  0  0  0
  7  1  1  0  0  0
  1 13  1  0  0  0
 13 14  1  0  0  0
 14 15  2  0  0  0
 15 16  1  0  0  0
 16 17  2  0  0  0
 17 18  1  0  0  0
 18 19  1  0  0  0
 18 20  2  0  0  0
  1  2  1  0  0  0
  2  3  2  0  0  0
  2 21  1  0  0  0
 21 22  1  0  0  0
 22 23  2  0  0  0
 23 24  1  0  0  0
 24 25  2  0  0  0
 25 26  1  0  0  0
 26 27  2  0  0  0
 27 28  1  0  0  0
 28 29  2  0  0  0
 29 30  1  0  0  0
 30 31  2  0  0  0
  7  8  1  0  0  0
  8  9  2  0  0  0
  9  4  1  0  0  0
 20 14  1  0  0  0
 31 22  1  0  0  0
 31 26  1  0  0  0
M  END
> <minimizedAffinity>
-7.30900

> <CNNscore>
0.7719630003

> <CNNaffinity>
6.7572531700

> <CNN_VS>
5.2163496017

> <CNNaffinity_variance>
0.0468952283

$$$$



 31 34  0  0  0  0  0  0  0  0999 V2000
    7.7643   -0.9798   23.5938 N   0  0  0  0  0  0  0  0  0  0  0  0
    7.1870   -0.2243   22.4336 C   0  0  0  0  0  0  0  0  0  0  0  0
    7.6446    1.1754   22.1477 O   0  0  0  0  0  0  0  0  0  0  0  0
    6.3918   -5.1786   24.4515 C   0  0  0  0  0  0  0  0  0  0  0  0
    5.3910   -4.0642   24.3708 C   0  0  0  0  0  0  0  0  0  0  0  0
    5.8485   -2.6646   24.0849 C   0  0  0  0  0  0  0  0  0  0  0  0
    7.3068   -2.3794   23.8797 C   0  0  0  0  0  0  0  0  0  0  0  0
    8.3076   -3.4938   23.9604 C   0  0  0  0  0  0  0  0  0  0  0  0
    7.8500   -4.8935   24.2463 C   0  0  0  0  0  0  0  0  0  0  0  0
    5.9343   -6.5782   24.7374 C   0  0  0  0  0  0  0  0  0  0  0  0
    3.0064   -7.1737   25.0071 N   0  0  0  0  0  0  0  0  0  0  0  0
    4.4703   -6.8760   24.8722 C   0  0  0  0  0  0  0  0  0  0  0  0
    8.7990   -0.3356   24.4681 C   0  0  0  0  0  0  0  0  0  0  0  0
   10.2327   -0.7670   24.3760 C   0  0  0  0  0  0  0  0  0  0  0  0
   10.9707   -1.1863   25.6128 C   0  0  0  0  0  0  0  0  0  0  0  0
   12.4044   -1.6177   25.5206 C   0  0  0  0  0  0  0  0  0  0  0  0
   13.1000   -1.6298   24.1917 C   0  0  0  0  0  0  0  0  0  0  0  0
   12.3620   -1.2105   22.9550 C   0  0  0  0  0  0  0  0  0  0  0  0
   13.0576   -1.2226   21.6261 Cl  0  0  0  0  0  0  0  0  0  0  0  0
   10.9283   -0.7791   23.0471 C   0  0  0  0  0  0  0  0  0  0  0  0
    6.1523   -0.8684   21.5593 C   0  0  0  0  0  0  0  0  0  0  0  0
    5.7181   -0.1957   20.2908 C   0  0  0  0  0  0  0  0  0  0  0  0
    6.4681   -0.4436   19.0157 C   0  0  0  0  0  0  0  0  0  0  0  0
    6.0339    0.2291   17.7473 N   0  0  0  0  0  0  0  0  0  0  0  0
    4.8497    1.1496   17.7539 C   0  0  0  0  0  0  0  0  0  0  0  0
    4.0996    1.3976   19.0291 C   0  0  0  0  0  0  0  0  0  0  0  0
    2.9153    2.3181   19.0358 C   0  0  0  0  0  0  0  0  0  0  0  0
    2.1653    2.5660   20.3109 C   0  0  0  0  0  0  0  0  0  0  0  0
    2.5996    1.8933   21.5794 C   0  0  0  0  0  0  0  0  0  0  0  0
    3.7838    0.9728   21.5727 C   0  0  0  0  0  0  0  0  0  0  0  0
    4.5338    0.7249   20.2976 C   0  0  0  0  0  0  0  0  0  0  0  0
 11 12  3  0  0  0
 12 10  1  0  0  0
 10  4  1  0  0  0
  4  5  2  0  0  0
  5  6  1  0  0  0
  6  7  2  0  0  0
  7  1  1  0  0  0
  1 13  1  0  0  0
 13 14  1  0  0  0
 14 15  2  0  0  0
 15 16  1  0  0  0
 16 17  2  0  0  0
 17 18  1  0  0  0
 18 19  1  0  0  0
 18 20  2  0  0  0
  1  2  1  0  0  0
  2  3  2  0  0  0
  2 21  1  0  0  0
 21 22  1  0  0  0
 22 23  2  0  0  0
 23 24  1  0  0  0
 24 25  2  0  0  0
 25 26  1  0  0  0
 26 27  2  0  0  0
 27 28  1  0  0  0
 28 29  2  0  0  0
 29 30  1  0  0  0
 30 31  2  0  0  0
  7  8  1  0  0  0
  8  9  2  0  0  0
  9  4  1  0  0  0
 20 14  1  0  0  0
 31 22  1  0  0  0
 31 26  1  0  0  0
M  END
> <minimizedAffinity>
-7.68200

> <CNNscore>
0.7513537407

> <CNNaffinity>
6.6973609924

> <CNN_VS>
5.0320873260

> <CNNaffinity_variance>
0.0237891860

$$$$



 31 34  0  0  0  0  0  0  0  0999 V2000
    7.2798   -3.2643   22.6218 N   0  0  0  0  0  0  0  0  0  0  0  0
    6.3085   -2.3568   21.9269 C   0  0  0  0  0  0  0  0  0  0  0  0
    4.9718   -2.8807   21.4922 O   0  0  0  0  0  0  0  0  0  0  0  0
   11.2898   -1.6928   23.9259 C   0  0  0  0  0  0  0  0  0  0  0  0
   10.7849   -1.4048   22.5431 C   0  0  0  0  0  0  0  0  0  0  0  0
    9.4483   -1.9286   22.1084 C   0  0  0  0  0  0  0  0  0  0  0  0
    8.6165   -2.7405   23.0565 C   0  0  0  0  0  0  0  0  0  0  0  0
    9.1213   -3.0285   24.4394 C   0  0  0  0  0  0  0  0  0  0  0  0
   10.4580   -2.5046   24.8740 C   0  0  0  0  0  0  0  0  0  0  0  0
   12.6264   -1.1689   24.3606 C   0  0  0  0  0  0  0  0  0  0  0  0
   14.2609   -2.7004   26.3564 N   0  0  0  0  0  0  0  0  0  0  0  0
   13.4437   -1.9347   25.3585 C   0  0  0  0  0  0  0  0  0  0  0  0
    6.9145   -4.6958   22.8821 C   0  0  0  0  0  0  0  0  0  0  0  0
    5.7952   -5.0246   23.8250 C   0  0  0  0  0  0  0  0  0  0  0  0
    5.8461   -4.5455   25.2456 C   0  0  0  0  0  0  0  0  0  0  0  0
    4.7268   -4.8743   26.1884 C   0  0  0  0  0  0  0  0  0  0  0  0
    3.5566   -5.6823   25.7108 C   0  0  0  0  0  0  0  0  0  0  0  0
    3.5058   -6.1613   24.2903 C   0  0  0  0  0  0  0  0  0  0  0  0
    2.3357   -6.9692   23.8127 Cl  0  0  0  0  0  0  0  0  0  0  0  0
    4.6251   -5.8325   23.3474 C   0  0  0  0  0  0  0  0  0  0  0  0
    6.6738   -0.9255   21.6667 C   0  0  0  0  0  0  0  0  0  0  0  0
    6.1743   -0.2366   20.4314 C   0  0  0  0  0  0  0  0  0  0  0  0
    6.9267   -0.3721   19.1409 C   0  0  0  0  0  0  0  0  0  0  0  0
    6.4271    0.3168   17.9056 N   0  0  0  0  0  0  0  0  0  0  0  0
    5.1752    1.1411   17.9608 C   0  0  0  0  0  0  0  0  0  0  0  0
    4.4227    1.2766   19.2514 C   0  0  0  0  0  0  0  0  0  0  0  0
    3.1707    2.1008   19.3066 C   0  0  0  0  0  0  0  0  0  0  0  0
    2.4183    2.2363   20.5971 C   0  0  0  0  0  0  0  0  0  0  0  0
    2.9178    1.5474   21.8324 C   0  0  0  0  0  0  0  0  0  0  0  0
    4.1698    0.7231   21.7772 C   0  0  0  0  0  0  0  0  0  0  0  0
    4.9222    0.5877   20.4866 C   0  0  0  0  0  0  0  0  0  0  0  0
 11 12  3  0  0  0
 12 10  1  0  0  0
 10  4  1  0  0  0
  4  5  2  0  0  0
  5  6  1  0  0  0
  6  7  2  0  0  0
  7  1  1  0  0  0
  1 13  1  0  0  0
 13 14  1  0  0  0
 14 15  2  0  0  0
 15 16  1  0  0  0
 16 17  2  0  0  0
 17 18  1  0  0  0
 18 19  1  0  0  0
 18 20  2  0  0  0
  1  2  1  0  0  0
  2  3  2  0  0  0
  2 21  1  0  0  0
 21 22  1  0  0  0
 22 23  2  0  0  0
 23 24  1  0  0  0
 24 25  2  0  0  0
 25 26  1  0  0  0
 26 27  2  0  0  0
 27 28  1  0  0  0
 28 29  2  0  0  0
 29 30  1  0  0  0
 30 31  2  0  0  0
  7  8  1  0  0  0
  8  9  2  0  0  0
  9  4  1  0  0  0
 20 14  1  0  0  0
 31 22  1  0  0  0
 31 26  1  0  0  0
M  END
> <minimizedAffinity>
-7.74772

> <CNNscore>
0.7495236993

> <CNNaffinity>
6.6396651268

> <CNN_VS>
4.9765863419

> <CNNaffinity_variance>
0.0163447894

$$$$



 31 34  0  0  0  0  0  0  0  0999 V2000
    9.9618   -0.6393   22.6992 N   0  0  0  0  0  0  0  0  0  0  0  0
    8.5521   -1.1425   22.6012 C   0  0  0  0  0  0  0  0  0  0  0  0
    8.2839   -2.6176   22.5531 O   0  0  0  0  0  0  0  0  0  0  0  0
   10.7663    3.7858   22.8433 C   0  0  0  0  0  0  0  0  0  0  0  0
    9.3543    3.2797   22.8484 C   0  0  0  0  0  0  0  0  0  0  0  0
    9.0861    1.8047   22.8003 C   0  0  0  0  0  0  0  0  0  0  0  0
   10.2300    0.8357   22.7473 C   0  0  0  0  0  0  0  0  0  0  0  0
   11.6420    1.3418   22.7422 C   0  0  0  0  0  0  0  0  0  0  0  0
   11.9102    2.8169   22.7903 C   0  0  0  0  0  0  0  0  0  0  0  0
   11.0345    5.2608   22.8914 C   0  0  0  0  0  0  0  0  0  0  0  0
    8.8051    7.1716   23.5069 N   0  0  0  0  0  0  0  0  0  0  0  0
    9.9198    6.2162   23.1991 C   0  0  0  0  0  0  0  0  0  0  0  0
   11.1033   -1.6112   22.7493 C   0  0  0  0  0  0  0  0  0  0  0  0
   11.6825   -2.0204   24.0710 C   0  0  0  0  0  0  0  0  0  0  0  0
   13.0466   -1.5425   24.4723 C   0  0  0  0  0  0  0  0  0  0  0  0
   13.6259   -1.9516   25.7941 C   0  0  0  0  0  0  0  0  0  0  0  0
   12.8410   -2.8387   26.7146 C   0  0  0  0  0  0  0  0  0  0  0  0
   11.4770   -3.3165   26.3133 C   0  0  0  0  0  0  0  0  0  0  0  0
   10.6922   -4.2035   27.2338 Cl  0  0  0  0  0  0  0  0  0  0  0  0
   10.8977   -2.9073   24.9915 C   0  0  0  0  0  0  0  0  0  0  0  0
    7.4106   -0.1707   22.5511 C   0  0  0  0  0  0  0  0  0  0  0  0
    6.7188    0.1073   21.2496 C   0  0  0  0  0  0  0  0  0  0  0  0
    7.3874   -0.2464   19.9543 C   0  0  0  0  0  0  0  0  0  0  0  0
    6.6956    0.0316   18.6527 N   0  0  0  0  0  0  0  0  0  0  0  0
    5.3352    0.6634   18.6464 C   0  0  0  0  0  0  0  0  0  0  0  0
    4.6665    1.0172   19.9418 C   0  0  0  0  0  0  0  0  0  0  0  0
    3.3061    1.6489   19.9355 C   0  0  0  0  0  0  0  0  0  0  0  0
    2.6374    2.0027   21.2307 C   0  0  0  0  0  0  0  0  0  0  0  0
    3.3293    1.7246   22.5323 C   0  0  0  0  0  0  0  0  0  0  0  0
    4.6897    1.0929   22.5386 C   0  0  0  0  0  0  0  0  0  0  0  0
    5.3583    0.7391   21.2433 C   0  0  0  0  0  0  0  0  0  0  0  0
 11 12  3  0  0  0
 12 10  1  0  0  0
 10  4  1  0  0  0
  4  5  2  0  0  0
  5  6  1  0  0  0
  6  7  2  0  0  0
  7  1  1  0  0  0
  1 13  1  0  0  0
 13 14  1  0  0  0
 14 15  2  0  0  0
 15 16  1  0  0  0
 16 17  2  0  0  0
 17 18  1  0  0  0
 18 19  1  0  0  0
 18 20  2  0  0  0
  1  2  1  0  0  0
  2  3  2  0  0  0
  2 21  1  0  0  0
 21 22  1  0  0  0
 22 23  2  0  0  0
 23 24  1  0  0  0
 24 25  2  0  0  0
 25 26  1  0  0  0
 26 27  2  0  0  0
 27 28  1  0  0  0
 28 29  2  0  0  0
 29 30  1  0  0  0
 30 31  2  0  0  0
  7  8  1  0  0  0
  8  9  2  0  0  0
  9  4  1  0  0  0
 20 14  1  0  0  0
 31 22  1  0  0  0
 31 26  1  0  0  0
M  END
> <minimizedAffinity>
-8.25766

> <CNNscore>
0.7416924238

> <CNNaffinity>
6.9373717308

> <CNN_VS>
5.1453962326

> <CNNaffinity_variance>
0.1147319824

$$$$



 31 34  0  0  0  0  0  0  0  0999 V2000
    8.4146    0.0320   23.4359 N   0  0  0  0  0  0  0  0  0  0  0  0
    7.8146    0.4540   22.1275 C   0  0  0  0  0  0  0  0  0  0  0  0
    8.5398    1.4313   21.2504 O   0  0  0  0  0  0  0  0  0  0  0  0
    6.2393   -2.8995   26.0673 C   0  0  0  0  0  0  0  0  0  0  0  0
    6.0745   -1.4254   26.2907 C   0  0  0  0  0  0  0  0  0  0  0  0
    6.7996   -0.4482   25.4136 C   0  0  0  0  0  0  0  0  0  0  0  0
    7.6895   -0.9451   24.3130 C   0  0  0  0  0  0  0  0  0  0  0  0
    7.8543   -2.4192   24.0896 C   0  0  0  0  0  0  0  0  0  0  0  0
    7.1291   -3.3964   24.9668 C   0  0  0  0  0  0  0  0  0  0  0  0
    5.5142   -3.8767   26.9444 C   0  0  0  0  0  0  0  0  0  0  0  0
    3.9415   -6.1160   25.7148 N   0  0  0  0  0  0  0  0  0  0  0  0
    4.7278   -4.9964   26.3296 C   0  0  0  0  0  0  0  0  0  0  0  0
    9.7397    0.5872   23.8672 C   0  0  0  0  0  0  0  0  0  0  0  0
   10.9525   -0.2953   23.8854 C   0  0  0  0  0  0  0  0  0  0  0  0
   11.7520   -0.4972   22.6324 C   0  0  0  0  0  0  0  0  0  0  0  0
   12.9648   -1.3796   22.6506 C   0  0  0  0  0  0  0  0  0  0  0  0
   13.3781   -2.0602   23.9219 C   0  0  0  0  0  0  0  0  0  0  0  0
   12.5785   -1.8583   25.1748 C   0  0  0  0  0  0  0  0  0  0  0  0
   12.9918   -2.5389   26.4460 Cl  0  0  0  0  0  0  0  0  0  0  0  0
   11.3657   -0.9759   25.1566 C   0  0  0  0  0  0  0  0  0  0  0  0
    6.4896   -0.1011   21.6962 C   0  0  0  0  0  0  0  0  0  0  0  0
    5.9073    0.2918   20.3708 C   0  0  0  0  0  0  0  0  0  0  0  0
    6.5832   -0.1301   19.1000 C   0  0  0  0  0  0  0  0  0  0  0  0
    6.0010    0.2628   17.7746 N   0  0  0  0  0  0  0  0  0  0  0  0
    4.7428    1.0777   17.7201 C   0  0  0  0  0  0  0  0  0  0  0  0
    4.0669    1.4997   18.9910 C   0  0  0  0  0  0  0  0  0  0  0  0
    2.8087    2.3145   18.9364 C   0  0  0  0  0  0  0  0  0  0  0  0
    2.1328    2.7365   20.2073 C   0  0  0  0  0  0  0  0  0  0  0  0
    2.7151    2.3436   21.5326 C   0  0  0  0  0  0  0  0  0  0  0  0
    3.9732    1.5287   21.5872 C   0  0  0  0  0  0  0  0  0  0  0  0
    4.6491    1.1067   20.3163 C   0  0  0  0  0  0  0  0  0  0  0  0
 11 12  3  0  0  0
 12 10  1  0  0  0
 10  4  1  0  0  0
  4  5  2  0  0  0
  5  6  1  0  0  0
  6  7  2  0  0  0
  7  1  1  0  0  0
  1 13  1  0  0  0
 13 14  1  0  0  0
 14 15  2  0  0  0
 15 16  1  0  0  0
 16 17  2  0  0  0
 17 18  1  0  0  0
 18 19  1  0  0  0
 18 20  2  0  0  0
  1  2  1  0  0  0
  2  3  2  0  0  0
  2 21  1  0  0  0
 21 22  1  0  0  0
 22 23  2  0  0  0
 23 24  1  0  0  0
 24 25  2  0  0  0
 25 26  1  0  0  0
 26 27  2  0  0  0
 27 28  1  0  0  0
 28 29  2  0  0  0
 29 30  1  0  0  0
 30 31  2  0  0  0
  7  8  1  0  0  0
  8  9  2  0  0  0
  9  4  1  0  0  0
 20 14  1  0  0  0
 31 22  1  0  0  0
 31 26  1  0  0  0
M  END
> <minimizedAffinity>
-7.47877

> <CNNscore>
0.7212123871

> <CNNaffinity>
6.6267609596

> <CNN_VS>
4.7793021202

> <CNNaffinity_variance>
0.0468398556

$$$$



 31 34  0  0  0  0  0  0  0  0999 V2000
    9.3051   -0.5767   23.2678 N   0  0  0  0  0  0  0  0  0  0  0  0
    7.8447   -0.5686   23.6100 C   0  0  0  0  0  0  0  0  0  0  0  0
    7.1182   -1.8628   23.8278 O   0  0  0  0  0  0  0  0  0  0  0  0
   11.4846    3.3057   22.6143 C   0  0  0  0  0  0  0  0  0  0  0  0
   12.2535    2.0219   22.7161 C   0  0  0  0  0  0  0  0  0  0  0  0
   11.5271    0.7277   22.9340 C   0  0  0  0  0  0  0  0  0  0  0  0
   10.0316    0.7174   23.0500 C   0  0  0  0  0  0  0  0  0  0  0  0
    9.2626    2.0013   22.9482 C   0  0  0  0  0  0  0  0  0  0  0  0
    9.9891    3.2955   22.7304 C   0  0  0  0  0  0  0  0  0  0  0  0
   12.2110    4.5998   22.3965 C   0  0  0  0  0  0  0  0  0  0  0  0
   10.7043    7.1935   22.4514 N   0  0  0  0  0  0  0  0  0  0  0  0
   11.4576    5.8967   22.4239 C   0  0  0  0  0  0  0  0  0  0  0  0
   10.0391   -1.8790   23.1435 C   0  0  0  0  0  0  0  0  0  0  0  0
   10.9290   -2.3475   24.2564 C   0  0  0  0  0  0  0  0  0  0  0  0
   12.3669   -1.9221   24.2965 C   0  0  0  0  0  0  0  0  0  0  0  0
   13.2568   -2.3907   25.4094 C   0  0  0  0  0  0  0  0  0  0  0  0
   12.7088   -3.2846   26.4822 C   0  0  0  0  0  0  0  0  0  0  0  0
   11.2710   -3.7100   26.4420 C   0  0  0  0  0  0  0  0  0  0  0  0
   10.7231   -4.6038   27.5146 Cl  0  0  0  0  0  0  0  0  0  0  0  0
   10.3811   -3.2414   25.3291 C   0  0  0  0  0  0  0  0  0  0  0  0
    7.1107    0.7336   23.7344 C   0  0  0  0  0  0  0  0  0  0  0  0
    5.8120    0.9346   23.0112 C   0  0  0  0  0  0  0  0  0  0  0  0
    4.5865    1.3477   23.7711 C   0  0  0  0  0  0  0  0  0  0  0  0
    3.2878    1.5486   23.0480 N   0  0  0  0  0  0  0  0  0  0  0  0
    3.2145    1.3365   21.5649 C   0  0  0  0  0  0  0  0  0  0  0  0
    4.4400    0.9233   20.8049 C   0  0  0  0  0  0  0  0  0  0  0  0
    4.3668    0.7112   19.3218 C   0  0  0  0  0  0  0  0  0  0  0  0
    5.5922    0.2981   18.5619 C   0  0  0  0  0  0  0  0  0  0  0  0
    6.8910    0.0971   19.2850 C   0  0  0  0  0  0  0  0  0  0  0  0
    6.9642    0.3093   20.7681 C   0  0  0  0  0  0  0  0  0  0  0  0
    5.7388    0.7224   21.5280 C   0  0  0  0  0  0  0  0  0  0  0  0
 11 12  3  0  0  0
 12 10  1  0  0  0
 10  4  1  0  0  0
  4  5  2  0  0  0
  5  6  1  0  0  0
  6  7  2  0  0  0
  7  1  1  0  0  0
  1 13  1  0  0  0
 13 14  1  0  0  0
 14 15  2  0  0  0
 15 16  1  0  0  0
 16 17  2  0  0  0
 17 18  1  0  0  0
 18 19  1  0  0  0
 18 20  2  0  0  0
  1  2  1  0  0  0
  2  3  2  0  0  0
  2 21  1  0  0  0
 21 22  1  0  0  0
 22 23  2  0  0  0
 23 24  1  0  0  0
 24 25  2  0  0  0
 25 26  1  0  0  0
 26 27  2  0  0  0
 27 28  1  0  0  0
 28 29  2  0  0  0
 29 30  1  0  0  0
 30 31  2  0  0  0
  7  8  1  0  0  0
  8  9  2  0  0  0
  9  4  1  0  0  0
 20 14  1  0  0  0
 31 22  1  0  0  0
 31 26  1  0  0  0
M  END
> <minimizedAffinity>
-7.84568

> <CNNscore>
0.6172206402

> <CNNaffinity>
6.6190338135

> <CNN_VS>
4.0854043961

> <CNNaffinity_variance>
0.0698921457

$$$$



 31 34  0  0  0  0  0  0  0  0999 V2000
    8.4179   -0.5324   22.4911 N   0  0  0  0  0  0  0  0  0  0  0  0
    8.0773   -1.3795   23.6811 C   0  0  0  0  0  0  0  0  0  0  0  0
    7.1803   -2.5712   23.5214 O   0  0  0  0  0  0  0  0  0  0  0  0
   11.1088    3.0425   22.9700 C   0  0  0  0  0  0  0  0  0  0  0  0
    9.6192    3.2143   23.0103 C   0  0  0  0  0  0  0  0  0  0  0  0
    8.7222    2.0227   22.8507 C   0  0  0  0  0  0  0  0  0  0  0  0
    9.3149    0.6592   22.6507 C   0  0  0  0  0  0  0  0  0  0  0  0
   10.8045    0.4875   22.6104 C   0  0  0  0  0  0  0  0  0  0  0  0
   11.7014    1.6792   22.7701 C   0  0  0  0  0  0  0  0  0  0  0  0
   12.0057    4.2341   23.1296 C   0  0  0  0  0  0  0  0  0  0  0  0
   11.1317    6.9169   22.1103 N   0  0  0  0  0  0  0  0  0  0  0  0
   11.5687    5.5755   22.6200 C   0  0  0  0  0  0  0  0  0  0  0  0
    7.8615   -0.8768   21.1413 C   0  0  0  0  0  0  0  0  0  0  0  0
    6.6063   -0.2141   20.6561 C   0  0  0  0  0  0  0  0  0  0  0  0
    5.5352    0.1703   21.6334 C   0  0  0  0  0  0  0  0  0  0  0  0
    4.2801    0.8330   21.1483 C   0  0  0  0  0  0  0  0  0  0  0  0
    4.0960    1.1112   19.6858 C   0  0  0  0  0  0  0  0  0  0  0  0
    5.1670    0.7268   18.7086 C   0  0  0  0  0  0  0  0  0  0  0  0
    4.9829    1.0050   17.2462 Cl  0  0  0  0  0  0  0  0  0  0  0  0
    6.4222    0.0641   19.1937 C   0  0  0  0  0  0  0  0  0  0  0  0
    8.6337   -1.0351   25.0309 C   0  0  0  0  0  0  0  0  0  0  0  0
    9.3352   -2.0834   25.8427 C   0  0  0  0  0  0  0  0  0  0  0  0
    8.5389   -3.0531   26.6645 C   0  0  0  0  0  0  0  0  0  0  0  0
    9.2404   -4.1013   27.4763 N   0  0  0  0  0  0  0  0  0  0  0  0
   10.7383   -4.1798   27.4663 C   0  0  0  0  0  0  0  0  0  0  0  0
   11.5347   -3.2101   26.6444 C   0  0  0  0  0  0  0  0  0  0  0  0
   13.0326   -3.2886   26.6345 C   0  0  0  0  0  0  0  0  0  0  0  0
   13.8290   -2.3188   25.8126 C   0  0  0  0  0  0  0  0  0  0  0  0
   13.1274   -1.2706   25.0008 C   0  0  0  0  0  0  0  0  0  0  0  0
   11.6295   -1.1921   25.0108 C   0  0  0  0  0  0  0  0  0  0  0  0
   10.8332   -2.1618   25.8326 C   0  0  0  0  0  0  0  0  0  0  0  0
 11 12  3  0  0  0
 12 10  1  0  0  0
 10  4  1  0  0  0
  4  5  2  0  0  0
  5  6  1  0  0  0
  6  7  2  0  0  0
  7  1  1  0  0  0
  1 13  1  0  0  0
 13 14  1  0  0  0
 14 15  2  0  0  0
 15 16  1  0  0  0
 16 17  2  0  0  0
 17 18  1  0  0  0
 18 19  1  0  0  0
 18 20  2  0  0  0
  1  2  1  0  0  0
  2  3  2  0  0  0
  2 21  1  0  0  0
 21 22  1  0  0  0
 22 23  2  0  0  0
 23 24  1  0  0  0
 24 25  2  0  0  0
 25 26  1  0  0  0
 26 27  2  0  0  0
 27 28  1  0  0  0
 28 29  2  0  0  0
 29 30  1  0  0  0
 30 31  2  0  0  0
  7  8  1  0  0  0
  8  9  2  0  0  0
  9  4  1  0  0  0
 20 14  1  0  0  0
 31 22  1  0  0  0
 31 26  1  0  0  0
M  END
> <minimizedAffinity>
-8.17998

> <CNNscore>
0.6046429873

> <CNNaffinity>
6.6075921059

> <CNN_VS>
3.9952342510

> <CNNaffinity_variance>
0.0685196668

$$$$



 31 34  0  0  0  0  0  0  0  0999 V2000
    7.3481   -0.2051   22.5043 N   0  0  0  0  0  0  0  0  0  0  0  0
    7.6812   -1.6611   22.6425 C   0  0  0  0  0  0  0  0  0  0  0  0
    6.6024   -2.6939   22.5020 O   0  0  0  0  0  0  0  0  0  0  0  0
   10.5843    2.8932   22.9258 C   0  0  0  0  0  0  0  0  0  0  0  0
    9.1946    3.3076   22.5423 C   0  0  0  0  0  0  0  0  0  0  0  0
    8.1159    2.2749   22.4018 C   0  0  0  0  0  0  0  0  0  0  0  0
    8.4268    0.8277   22.6448 C   0  0  0  0  0  0  0  0  0  0  0  0
    9.8165    0.4133   23.0284 C   0  0  0  0  0  0  0  0  0  0  0  0
   10.8953    1.4461   23.1689 C   0  0  0  0  0  0  0  0  0  0  0  0
   11.6630    3.9260   23.0663 C   0  0  0  0  0  0  0  0  0  0  0  0
   11.2011    6.7213   22.0800 N   0  0  0  0  0  0  0  0  0  0  0  0
   11.4320    5.3237   22.5731 C   0  0  0  0  0  0  0  0  0  0  0  0
    5.9363    0.2182   22.2256 C   0  0  0  0  0  0  0  0  0  0  0  0
    5.5088    0.5255   20.8211 C   0  0  0  0  0  0  0  0  0  0  0  0
    6.3200    0.0235   19.6634 C   0  0  0  0  0  0  0  0  0  0  0  0
    5.8926    0.3308   18.2588 C   0  0  0  0  0  0  0  0  0  0  0  0
    4.6539    1.1401   18.0119 C   0  0  0  0  0  0  0  0  0  0  0  0
    3.8428    1.6420   19.1695 C   0  0  0  0  0  0  0  0  0  0  0  0
    2.6042    2.4512   18.9225 Cl  0  0  0  0  0  0  0  0  0  0  0  0
    4.2703    1.3347   20.5741 C   0  0  0  0  0  0  0  0  0  0  0  0
    9.0930   -2.0844   22.9212 C   0  0  0  0  0  0  0  0  0  0  0  0
    9.4556   -2.6496   24.2624 C   0  0  0  0  0  0  0  0  0  0  0  0
    8.3996   -3.2801   25.1210 C   0  0  0  0  0  0  0  0  0  0  0  0
    8.7622   -3.8454   26.4622 N   0  0  0  0  0  0  0  0  0  0  0  0
   10.1809   -3.7802   26.9449 C   0  0  0  0  0  0  0  0  0  0  0  0
   11.2370   -3.1497   26.0863 C   0  0  0  0  0  0  0  0  0  0  0  0
   12.6557   -3.0845   26.5690 C   0  0  0  0  0  0  0  0  0  0  0  0
   13.7118   -2.4540   25.7104 C   0  0  0  0  0  0  0  0  0  0  0  0
   13.3491   -1.8887   24.3691 C   0  0  0  0  0  0  0  0  0  0  0  0
   11.9304   -1.9539   23.8865 C   0  0  0  0  0  0  0  0  0  0  0  0
   10.8744   -2.5844   24.7451 C   0  0  0  0  0  0  0  0  0  0  0  0
 11 12  3  0  0  0
 12 10  1  0  0  0
 10  4  1  0  0  0
  4  5  2  0  0  0
  5  6  1  0  0  0
  6  7  2  0  0  0
  7  1  1  0  0  0
  1 13  1  0  0  0
 13 14  1  0  0  0
 14 15  2  0  0  0
 15 16  1  0  0  0
 16 17  2  0  0  0
 17 18  1  0  0  0
 18 19  1  0  0  0
 18 20  2  0  0  0
  1  2  1  0  0  0
  2  3  2  0  0  0
  2 21  1  0  0  0
 21 22  1  0  0  0
 22 23  2  0  0  0
 23 24  1  0  0  0
 24 25  2  0  0  0
 25 26  1  0  0  0
 26 27  2  0  0  0
 27 28  1  0  0  0
 28 29  2  0  0  0
 29 30  1  0  0  0
 30 31  2  0  0  0
  7  8  1  0  0  0
  8  9  2  0  0  0
  9  4  1  0  0  0
 20 14  1  0  0  0
 31 22  1  0  0  0
 31 26  1  0  0  0
M  END
> <minimizedAffinity>
-8.33325

> <CNNscore>
0.5108712912

> <CNNaffinity>
6.5334587097

> <CNN_VS>
3.3377563953

> <CNNaffinity_variance>
0.0511512272

$$$$
