


 36 40  0  0  0  0  0  0  0  0999 V2000
   10.0368    0.6923   23.1344 N   0  0  0  0  0  0  0  0  0  0  0  0
    8.6754    0.1026   23.3556 C   0  0  0  0  0  0  0  0  0  0  0  0
    8.5061   -1.0684   24.2775 C   0  0  0  0  0  0  0  0  0  0  0  0
    8.1836   -2.2336   25.1654 C   0  0  0  0  0  0  0  0  0  0  0  0
    8.7377   -3.0179   25.9099 O   0  0  0  0  0  0  0  0  0  0  0  0
    6.7064   -2.4818   25.0863 N   0  0  0  0  0  0  0  0  0  0  0  0
    6.1159   -1.4701   24.1494 C   0  0  0  0  0  0  0  0  0  0  0  0
    7.2282   -0.5966   23.6496 C   0  0  0  0  0  0  0  0  0  0  0  0
    9.6982   -1.6498   24.9783 C   0  0  0  0  0  0  0  0  0  0  0  0
    9.5289   -2.8209   25.9002 C   0  0  0  0  0  0  0  0  0  0  0  0
   10.7209   -3.4022   26.6009 C   0  0  0  0  0  0  0  0  0  0  0  0
   10.5517   -4.5733   27.5228 Cl  0  0  0  0  0  0  0  0  0  0  0  0
   12.0823   -2.8125   26.3797 C   0  0  0  0  0  0  0  0  0  0  0  0
   12.2516   -1.6414   25.4578 C   0  0  0  0  0  0  0  0  0  0  0  0
   11.0596   -1.0601   24.7571 C   0  0  0  0  0  0  0  0  0  0  0  0
   11.2289    0.1110   23.8351 C   0  0  0  0  0  0  0  0  0  0  0  0
   12.5902    0.7007   23.6140 O   0  0  0  0  0  0  0  0  0  0  0  0
    5.9522   -3.5536   25.8159 C   0  0  0  0  0  0  0  0  0  0  0  0
    5.5802   -4.8230   25.1086 C   0  0  0  0  0  0  0  0  0  0  0  0
    4.8259   -5.8948   25.8382 N   0  0  0  0  0  0  0  0  0  0  0  0
    4.4437   -5.6973   27.2751 C   0  0  0  0  0  0  0  0  0  0  0  0
    4.8157   -4.4279   27.9824 C   0  0  0  0  0  0  0  0  0  0  0  0
    4.4333   -4.2303   29.4194 C   0  0  0  0  0  0  0  0  0  0  0  0
    4.8054   -2.9609   30.1267 C   0  0  0  0  0  0  0  0  0  0  0  0
    5.5596   -1.8891   29.3971 C   0  0  0  0  0  0  0  0  0  0  0  0
    5.9419   -2.0867   27.9601 C   0  0  0  0  0  0  0  0  0  0  0  0
    5.5699   -3.3561   27.2528 C   0  0  0  0  0  0  0  0  0  0  0  0
    7.0873    0.5479   22.6903 C   0  0  0  0  0  0  0  0  0  0  0  0
    6.3975    0.3429   21.3743 O   0  0  0  0  0  0  0  0  0  0  0  0
    6.3063    1.0830   20.7539 H   0  0  0  0  0  0  0  0  0  0  0  0
   10.2061    1.8634   22.2125 C   0  0  0  0  0  0  0  0  0  0  0  0
   10.6677    5.7232   23.0122 C   0  0  0  0  0  0  0  0  0  0  0  0
   10.9480    4.3343   22.5197 N   0  0  0  0  0  0  0  0  0  0  0  0
    9.9258    3.2523   22.7050 C   0  0  0  0  0  0  0  0  0  0  0  0
    8.6233    3.5591   23.3828 O   0  0  0  0  0  0  0  0  0  0  0  0
   11.8028    4.1329   22.0748 H   0  0  0  0  0  0  0  0  0  0  0  0
 32 33  1  0  0  0
 33 34  1  0  0  0
 34 35  2  0  0  0
 34 31  1  0  0  0
 31  1  1  0  0  0
  1  2  1  0  0  0
  3  2  1  0  0  0
  3  4  1  0  0  0
  4  5  2  0  0  0
  4  6  1  0  0  0
  6 18  1  0  0  0
 18 19  2  0  0  0
 19 20  1  0  0  0
 20 21  2  0  0  0
 21 22  1  0  0  0
 22 23  2  0  0  0
 23 24  1  0  0  0
 24 25  2  0  0  0
 25 26  1  0  0  0
 26 27  2  0  0  0
  6  7  1  0  0  0
  7  8  1  0  0  0
  8 28  1  0  0  0
 28 29  1  0  0  0
  3  9  1  0  0  0
  9 10  2  0  0  0
 10 11  1  0  0  0
 11 12  1  0  0  0
 11 13  2  0  0  0
 13 14  1  0  0  0
 14 15  2  0  0  0
 15 16  1  0  0  0
 16 17  2  0  0  0
 16  1  1  0  0  0
  8  3  1  0  0  0
 15  9  1  0  0  0
 27 18  1  0  0  0
 27 22  1  0  0  0
 33 36  1  0  0  0
 29 30  1  0  0  0
M  END
> <minimizedAffinity>
-7.43318

> <CNNscore>
0.5003653169

> <CNNaffinity>
6.3655910492

> <CNN_VS>
3.1851210594

> <CNNaffinity_variance>
0.1812862456

$$$$



 36 40  0  0  0  0  0  0  0  0999 V2000
   10.6882    1.5652   22.8556 N   0  0  0  0  0  0  0  0  0  0  0  0
    9.2982    1.2926   23.3492 C   0  0  0  0  0  0  0  0  0  0  0  0
    9.0451    0.1455   24.2820 C   0  0  0  0  0  0  0  0  0  0  0  0
    8.6409   -0.9589   25.2129 C   0  0  0  0  0  0  0  0  0  0  0  0
    9.1316   -1.8867   25.8251 O   0  0  0  0  0  0  0  0  0  0  0  0
    7.1613   -0.8576   25.4377 N   0  0  0  0  0  0  0  0  0  0  0  0
    6.6510    0.3096   24.6456 C   0  0  0  0  0  0  0  0  0  0  0  0
    7.8153    0.9295   23.9314 C   0  0  0  0  0  0  0  0  0  0  0  0
   10.1820   -0.7290   24.7211 C   0  0  0  0  0  0  0  0  0  0  0  0
    9.9288   -1.8761   25.6539 C   0  0  0  0  0  0  0  0  0  0  0  0
   11.0657   -2.7506   26.0930 C   0  0  0  0  0  0  0  0  0  0  0  0
   10.8126   -3.8977   27.0258 Cl  0  0  0  0  0  0  0  0  0  0  0  0
   12.4556   -2.4779   25.5994 C   0  0  0  0  0  0  0  0  0  0  0  0
   12.7088   -1.3309   24.6666 C   0  0  0  0  0  0  0  0  0  0  0  0
   11.5719   -0.4564   24.2275 C   0  0  0  0  0  0  0  0  0  0  0  0
   11.8250    0.6908   23.2947 C   0  0  0  0  0  0  0  0  0  0  0  0
   13.2150    0.9634   22.8011 O   0  0  0  0  0  0  0  0  0  0  0  0
    6.3367   -1.7642   26.3026 C   0  0  0  0  0  0  0  0  0  0  0  0
    6.0785   -3.1785   25.8747 C   0  0  0  0  0  0  0  0  0  0  0  0
    5.2539   -4.0851   26.7396 N   0  0  0  0  0  0  0  0  0  0  0  0
    4.6875   -3.5774   28.0324 C   0  0  0  0  0  0  0  0  0  0  0  0
    4.9457   -2.1631   28.4604 C   0  0  0  0  0  0  0  0  0  0  0  0
    4.3793   -1.6554   29.7533 C   0  0  0  0  0  0  0  0  0  0  0  0
    4.6376   -0.2411   30.1811 C   0  0  0  0  0  0  0  0  0  0  0  0
    5.4621    0.6655   29.3162 C   0  0  0  0  0  0  0  0  0  0  0  0
    6.0285    0.1578   28.0233 C   0  0  0  0  0  0  0  0  0  0  0  0
    5.7703   -1.2565   27.5954 C   0  0  0  0  0  0  0  0  0  0  0  0
    7.7596    2.1239   23.0255 C   0  0  0  0  0  0  0  0  0  0  0  0
    6.6720    2.2363   21.9988 O   0  0  0  0  0  0  0  0  0  0  0  0
    6.6360    3.0087   21.4130 H   0  0  0  0  0  0  0  0  0  0  0  0
   10.9413    2.7124   21.9228 C   0  0  0  0  0  0  0  0  0  0  0  0
   10.6926    6.3619   23.4621 C   0  0  0  0  0  0  0  0  0  0  0  0
   10.2916    5.0243   22.9144 N   0  0  0  0  0  0  0  0  0  0  0  0
   11.3423    4.0500   22.4705 C   0  0  0  0  0  0  0  0  0  0  0  0
   12.7939    4.4134   22.5745 O   0  0  0  0  0  0  0  0  0  0  0  0
    9.3389    4.7858   22.8461 H   0  0  0  0  0  0  0  0  0  0  0  0
 32 33  1  0  0  0
 33 34  1  0  0  0
 34 35  2  0  0  0
 34 31  1  0  0  0
 31  1  1  0  0  0
  1  2  1  0  0  0
  3  2  1  0  0  0
  3  4  1  0  0  0
  4  5  2  0  0  0
  4  6  1  0  0  0
  6 18  1  0  0  0
 18 19  2  0  0  0
 19 20  1  0  0  0
 20 21  2  0  0  0
 21 22  1  0  0  0
 22 23  2  0  0  0
 23 24  1  0  0  0
 24 25  2  0  0  0
 25 26  1  0  0  0
 26 27  2  0  0  0
  6  7  1  0  0  0
  7  8  1  0  0  0
  8 28  1  0  0  0
 28 29  1  0  0  0
  3  9  1  0  0  0
  9 10  2  0  0  0
 10 11  1  0  0  0
 11 12  1  0  0  0
 11 13  2  0  0  0
 13 14  1  0  0  0
 14 15  2  0  0  0
 15 16  1  0  0  0
 16 17  2  0  0  0
 16  1  1  0  0  0
  8  3  1  0  0  0
 15  9  1  0  0  0
 27 18  1  0  0  0
 27 22  1  0  0  0
 33 36  1  0  0  0
 29 30  1  0  0  0
M  END
> <minimizedAffinity>
-7.66130

> <CNNscore>
0.4828332663

> <CNNaffinity>
6.4578943253

> <CNN_VS>
3.1180860996

> <CNNaffinity_variance>
0.2566730380

$$$$



 36 40  0  0  0  0  0  0  0  0999 V2000
   10.4165    0.5902   23.6711 N   0  0  0  0  0  0  0  0  0  0  0  0
    9.0276    0.1984   24.0803 C   0  0  0  0  0  0  0  0  0  0  0  0
    8.8160   -0.9823   24.9809 C   0  0  0  0  0  0  0  0  0  0  0  0
    8.4506   -2.1326   25.8715 C   0  0  0  0  0  0  0  0  0  0  0  0
    8.9796   -3.0295   26.4978 O   0  0  0  0  0  0  0  0  0  0  0  0
    6.9574   -2.1538   26.0124 N   0  0  0  0  0  0  0  0  0  0  0  0
    6.3998   -1.0166   25.2087 C   0  0  0  0  0  0  0  0  0  0  0  0
    7.5485   -0.2926   24.5712 C   0  0  0  0  0  0  0  0  0  0  0  0
    9.9933   -1.7714   25.4723 C   0  0  0  0  0  0  0  0  0  0  0  0
    9.7817   -2.9521   26.3728 C   0  0  0  0  0  0  0  0  0  0  0  0
   10.9590   -3.7410   26.8642 C   0  0  0  0  0  0  0  0  0  0  0  0
   10.7474   -4.9218   27.7648 Cl  0  0  0  0  0  0  0  0  0  0  0  0
   12.3479   -3.3493   26.4550 C   0  0  0  0  0  0  0  0  0  0  0  0
   12.5595   -2.1685   25.5545 C   0  0  0  0  0  0  0  0  0  0  0  0
   11.3822   -1.3796   25.0631 C   0  0  0  0  0  0  0  0  0  0  0  0
   11.5938   -0.1988   24.1625 C   0  0  0  0  0  0  0  0  0  0  0  0
   12.9827    0.1930   23.7533 O   0  0  0  0  0  0  0  0  0  0  0  0
    6.1615   -3.1392   26.8158 C   0  0  0  0  0  0  0  0  0  0  0  0
    6.0564   -2.9828   28.3039 C   0  0  0  0  0  0  0  0  0  0  0  0
    5.2605   -3.9682   29.1073 N   0  0  0  0  0  0  0  0  0  0  0  0
    4.5697   -5.1101   28.4226 C   0  0  0  0  0  0  0  0  0  0  0  0
    4.6748   -5.2666   26.9345 C   0  0  0  0  0  0  0  0  0  0  0  0
    3.9839   -6.4085   26.2498 C   0  0  0  0  0  0  0  0  0  0  0  0
    4.0891   -6.5649   24.7616 C   0  0  0  0  0  0  0  0  0  0  0  0
    4.8850   -5.5795   23.9582 C   0  0  0  0  0  0  0  0  0  0  0  0
    5.5758   -4.4376   24.6429 C   0  0  0  0  0  0  0  0  0  0  0  0
    5.4707   -4.2811   26.1311 C   0  0  0  0  0  0  0  0  0  0  0  0
    7.4474    0.9100   23.6805 C   0  0  0  0  0  0  0  0  0  0  0  0
    6.1934    1.1592   22.8961 O   0  0  0  0  0  0  0  0  0  0  0  0
    6.1281    1.9369   22.3201 H   0  0  0  0  0  0  0  0  0  0  0  0
   10.6281    1.7710   22.7705 C   0  0  0  0  0  0  0  0  0  0  0  0
    8.1871    4.8714   23.1932 C   0  0  0  0  0  0  0  0  0  0  0  0
    9.3085    3.9063   23.4404 N   0  0  0  0  0  0  0  0  0  0  0  0
    9.5067    2.7361   22.5233 C   0  0  0  0  0  0  0  0  0  0  0  0
    8.5836    2.5309   21.3588 O   0  0  0  0  0  0  0  0  0  0  0  0
    9.9143    4.0410   24.2047 H   0  0  0  0  0  0  0  0  0  0  0  0
 32 33  1  0  0  0
 33 34  1  0  0  0
 34 35  2  0  0  0
 34 31  1  0  0  0
 31  1  1  0  0  0
  1  2  1  0  0  0
  3  2  1  0  0  0
  3  4  1  0  0  0
  4  5  2  0  0  0
  4  6  1  0  0  0
  6 18  1  0  0  0
 18 19  2  0  0  0
 19 20  1  0  0  0
 20 21  2  0  0  0
 21 22  1  0  0  0
 22 23  2  0  0  0
 23 24  1  0  0  0
 24 25  2  0  0  0
 25 26  1  0  0  0
 26 27  2  0  0  0
  6  7  1  0  0  0
  7  8  1  0  0  0
  8 28  1  0  0  0
 28 29  1  0  0  0
  3  9  1  0  0  0
  9 10  2  0  0  0
 10 11  1  0  0  0
 11 12  1  0  0  0
 11 13  2  0  0  0
 13 14  1  0  0  0
 14 15  2  0  0  0
 15 16  1  0  0  0
 16 17  2  0  0  0
 16  1  1  0  0  0
  8  3  1  0  0  0
 15  9  1  0  0  0
 27 18  1  0  0  0
 27 22  1  0  0  0
 33 36  1  0  0  0
 29 30  1  0  0  0
M  END
> <minimizedAffinity>
-7.85750

> <CNNscore>
0.4513973892

> <CNNaffinity>
6.3657689095

> <CNN_VS>
2.8734915257

> <CNNaffinity_variance>
0.3326540291

$$$$



 36 40  0  0  0  0  0  0  0  0999 V2000
    9.6563    0.7076   22.9234 N   0  0  0  0  0  0  0  0  0  0  0  0
    8.5287   -0.2691   22.7666 C   0  0  0  0  0  0  0  0  0  0  0  0
    8.5485   -1.5650   23.5217 C   0  0  0  0  0  0  0  0  0  0  0  0
    8.4310   -2.8935   24.2082 C   0  0  0  0  0  0  0  0  0  0  0  0
    9.0392   -3.5918   24.9948 O   0  0  0  0  0  0  0  0  0  0  0  0
    7.1503   -3.5343   23.7618 N   0  0  0  0  0  0  0  0  0  0  0  0
    6.4764   -2.6018   22.7993 C   0  0  0  0  0  0  0  0  0  0  0  0
    7.3406   -1.3848   22.6510 C   0  0  0  0  0  0  0  0  0  0  0  0
    9.6960   -1.8842   24.4337 C   0  0  0  0  0  0  0  0  0  0  0  0
    9.7158   -3.1801   25.1888 C   0  0  0  0  0  0  0  0  0  0  0  0
   10.8632   -3.4992   26.1007 C   0  0  0  0  0  0  0  0  0  0  0  0
   10.8831   -4.7952   26.8559 Cl  0  0  0  0  0  0  0  0  0  0  0  0
   11.9908   -2.5225   26.2574 C   0  0  0  0  0  0  0  0  0  0  0  0
   11.9710   -1.2266   25.5023 C   0  0  0  0  0  0  0  0  0  0  0  0
   10.8236   -0.9075   24.5904 C   0  0  0  0  0  0  0  0  0  0  0  0
   10.8037    0.3885   23.8352 C   0  0  0  0  0  0  0  0  0  0  0  0
   11.9313    1.3652   23.9920 O   0  0  0  0  0  0  0  0  0  0  0  0
    6.6342   -4.8725   24.2007 C   0  0  0  0  0  0  0  0  0  0  0  0
    7.1901   -6.1266   23.5938 C   0  0  0  0  0  0  0  0  0  0  0  0
    6.6740   -7.4649   24.0327 N   0  0  0  0  0  0  0  0  0  0  0  0
    5.6021   -7.5491   25.0786 C   0  0  0  0  0  0  0  0  0  0  0  0
    5.0462   -6.2950   25.6855 C   0  0  0  0  0  0  0  0  0  0  0  0
    3.9742   -6.3792   26.7314 C   0  0  0  0  0  0  0  0  0  0  0  0
    3.4184   -5.1251   27.3382 C   0  0  0  0  0  0  0  0  0  0  0  0
    3.9345   -3.7868   26.8993 C   0  0  0  0  0  0  0  0  0  0  0  0
    5.0064   -3.7027   25.8534 C   0  0  0  0  0  0  0  0  0  0  0  0
    5.5623   -4.9567   25.2465 C   0  0  0  0  0  0  0  0  0  0  0  0
    7.0480   -0.1961   21.7840 C   0  0  0  0  0  0  0  0  0  0  0  0
    7.3430   -0.2489   20.3143 O   0  0  0  0  0  0  0  0  0  0  0  0
    7.1539    0.5198   19.7538 H   0  0  0  0  0  0  0  0  0  0  0  0
    9.6364    2.0035   22.1682 C   0  0  0  0  0  0  0  0  0  0  0  0
   11.2100    5.4398   23.3789 C   0  0  0  0  0  0  0  0  0  0  0  0
   10.2007    4.3748   23.0675 N   0  0  0  0  0  0  0  0  0  0  0  0
   10.6458    3.0686   22.4796 C   0  0  0  0  0  0  0  0  0  0  0  0
   12.1002    2.8274   22.2029 O   0  0  0  0  0  0  0  0  0  0  0  0
    9.2461    4.5331   23.2490 H   0  0  0  0  0  0  0  0  0  0  0  0
 32 33  1  0  0  0
 33 34  1  0  0  0
 34 35  2  0  0  0
 34 31  1  0  0  0
 31  1  1  0  0  0
  1  2  1  0  0  0
  3  2  1  0  0  0
  3  4  1  0  0  0
  4  5  2  0  0  0
  4  6  1  0  0  0
  6 18  1  0  0  0
 18 19  2  0  0  0
 19 20  1  0  0  0
 20 21  2  0  0  0
 21 22  1  0  0  0
 22 23  2  0  0  0
 23 24  1  0  0  0
 24 25  2  0  0  0
 25 26  1  0  0  0
 26 27  2  0  0  0
  6  7  1  0  0  0
  7  8  1  0  0  0
  8 28  1  0  0  0
 28 29  1  0  0  0
  3  9  1  0  0  0
  9 10  2  0  0  0
 10 11  1  0  0  0
 11 12  1  0  0  0
 11 13  2  0  0  0
 13 14  1  0  0  0
 14 15  2  0  0  0
 15 16  1  0  0  0
 16 17  2  0  0  0
 16  1  1  0  0  0
  8  3  1  0  0  0
 15  9  1  0  0  0
 27 18  1  0  0  0
 27 22  1  0  0  0
 33 36  1  0  0  0
 29 30  1  0  0  0
M  END
> <minimizedAffinity>
-8.27244

> <CNNscore>
0.3364409804

> <CNNaffinity>
6.3211612701

> <CNN_VS>
2.1266977787

> <CNNaffinity_variance>
0.2221875936

$$$$



 36 40  0  0  0  0  0  0  0  0999 V2000
   10.7299    1.5359   22.8084 N   0  0  0  0  0  0  0  0  0  0  0  0
    9.3461    1.1948   23.2762 C   0  0  0  0  0  0  0  0  0  0  0  0
    9.1307    0.0274   24.1930 C   0  0  0  0  0  0  0  0  0  0  0  0
    8.7626   -1.1044   25.1060 C   0  0  0  0  0  0  0  0  0  0  0  0
    9.2854   -2.0153   25.7169 O   0  0  0  0  0  0  0  0  0  0  0  0
    7.2764   -1.0730   25.3072 N   0  0  0  0  0  0  0  0  0  0  0  0
    6.7261    0.0781   24.5185 C   0  0  0  0  0  0  0  0  0  0  0  0
    7.8721    0.7582   23.8299 C   0  0  0  0  0  0  0  0  0  0  0  0
   10.2992   -0.7990   24.6422 C   0  0  0  0  0  0  0  0  0  0  0  0
   10.0839   -1.9665   25.5591 C   0  0  0  0  0  0  0  0  0  0  0  0
   11.2524   -2.7928   26.0082 C   0  0  0  0  0  0  0  0  0  0  0  0
   11.0371   -3.9603   26.9251 Cl  0  0  0  0  0  0  0  0  0  0  0  0
   12.6362   -2.4518   25.5405 C   0  0  0  0  0  0  0  0  0  0  0  0
   12.8515   -1.2843   24.6236 C   0  0  0  0  0  0  0  0  0  0  0  0
   11.6830   -0.4580   24.1745 C   0  0  0  0  0  0  0  0  0  0  0  0
   11.8983    0.7095   23.2575 C   0  0  0  0  0  0  0  0  0  0  0  0
   13.2821    1.0506   22.7898 O   0  0  0  0  0  0  0  0  0  0  0  0
    6.4804   -2.0256   26.1492 C   0  0  0  0  0  0  0  0  0  0  0  0
    6.2016   -1.7025   27.5872 C   0  0  0  0  0  0  0  0  0  0  0  0
    5.4056   -2.6551   28.4292 N   0  0  0  0  0  0  0  0  0  0  0  0
    4.8884   -3.9307   27.8332 C   0  0  0  0  0  0  0  0  0  0  0  0
    5.1672   -4.2538   26.3951 C   0  0  0  0  0  0  0  0  0  0  0  0
    4.6500   -5.5295   25.7991 C   0  0  0  0  0  0  0  0  0  0  0  0
    4.9289   -5.8525   24.3611 C   0  0  0  0  0  0  0  0  0  0  0  0
    5.7249   -4.8999   23.5191 C   0  0  0  0  0  0  0  0  0  0  0  0
    6.2421   -3.6243   24.1151 C   0  0  0  0  0  0  0  0  0  0  0  0
    5.9632   -3.3012   25.5531 C   0  0  0  0  0  0  0  0  0  0  0  0
    7.7763    1.9584   22.9353 C   0  0  0  0  0  0  0  0  0  0  0  0
    6.5353    2.1939   22.1266 O   0  0  0  0  0  0  0  0  0  0  0  0
    6.4734    2.9701   21.5481 H   0  0  0  0  0  0  0  0  0  0  0  0
   10.9451    2.7034   21.8915 C   0  0  0  0  0  0  0  0  0  0  0  0
   10.6855    6.3495   23.4370 C   0  0  0  0  0  0  0  0  0  0  0  0
   10.2883    5.0170   22.8741 N   0  0  0  0  0  0  0  0  0  0  0  0
   11.3423    4.0358   22.4544 C   0  0  0  0  0  0  0  0  0  0  0  0
   12.7937    4.3870   22.5975 O   0  0  0  0  0  0  0  0  0  0  0  0
    9.3358    4.7865   22.7802 H   0  0  0  0  0  0  0  0  0  0  0  0
 32 33  1  0  0  0
 33 34  1  0  0  0
 34 35  2  0  0  0
 34 31  1  0  0  0
 31  1  1  0  0  0
  1  2  1  0  0  0
  3  2  1  0  0  0
  3  4  1  0  0  0
  4  5  2  0  0  0
  4  6  1  0  0  0
  6 18  1  0  0  0
 18 19  2  0  0  0
 19 20  1  0  0  0
 20 21  2  0  0  0
 21 22  1  0  0  0
 22 23  2  0  0  0
 23 24  1  0  0  0
 24 25  2  0  0  0
 25 26  1  0  0  0
 26 27  2  0  0  0
  6  7  1  0  0  0
  7  8  1  0  0  0
  8 28  1  0  0  0
 28 29  1  0  0  0
  3  9  1  0  0  0
  9 10  2  0  0  0
 10 11  1  0  0  0
 11 12  1  0  0  0
 11 13  2  0  0  0
 13 14  1  0  0  0
 14 15  2  0  0  0
 15 16  1  0  0  0
 16 17  2  0  0  0
 16  1  1  0  0  0
  8  3  1  0  0  0
 15  9  1  0  0  0
 27 18  1  0  0  0
 27 22  1  0  0  0
 33 36  1  0  0  0
 29 30  1  0  0  0
M  END
> <minimizedAffinity>
-7.97372

> <CNNscore>
0.3334212899

> <CNNaffinity>
6.4109077454

> <CNN_VS>
2.1375331879

> <CNNaffinity_variance>
0.2589420974

$$$$



 36 40  0  0  0  0  0  0  0  0999 V2000
    5.5074    2.6204   22.5699 N   0  0  0  0  0  0  0  0  0  0  0  0
    6.6611    1.6623   22.6044 C   0  0  0  0  0  0  0  0  0  0  0  0
    6.8867    0.8034   23.8132 C   0  0  0  0  0  0  0  0  0  0  0  0
    7.2368   -0.1147   24.9466 C   0  0  0  0  0  0  0  0  0  0  0  0
    6.8440   -0.4150   26.0565 O   0  0  0  0  0  0  0  0  0  0  0  0
    8.4593   -0.8903   24.5543 N   0  0  0  0  0  0  0  0  0  0  0  0
    8.8648   -0.4516   23.1784 C   0  0  0  0  0  0  0  0  0  0  0  0
    7.8929    0.5951   22.7204 C   0  0  0  0  0  0  0  0  0  0  0  0
    5.9587    0.9025   24.9876 C   0  0  0  0  0  0  0  0  0  0  0  0
    6.1844    0.0436   26.1964 C   0  0  0  0  0  0  0  0  0  0  0  0
    5.2565    0.1427   27.3707 C   0  0  0  0  0  0  0  0  0  0  0  0
    5.4821   -0.7163   28.5796 Cl  0  0  0  0  0  0  0  0  0  0  0  0
    4.1028    1.1008   27.3362 C   0  0  0  0  0  0  0  0  0  0  0  0
    3.8771    1.9597   26.1274 C   0  0  0  0  0  0  0  0  0  0  0  0
    4.8051    1.8606   24.9531 C   0  0  0  0  0  0  0  0  0  0  0  0
    4.5794    2.7195   23.7442 C   0  0  0  0  0  0  0  0  0  0  0  0
    3.4258    3.6776   23.7097 O   0  0  0  0  0  0  0  0  0  0  0  0
    9.1543   -1.9232   25.3910 C   0  0  0  0  0  0  0  0  0  0  0  0
    8.3509   -2.9249   26.1663 C   0  0  0  0  0  0  0  0  0  0  0  0
    9.0458   -3.9578   27.0030 N   0  0  0  0  0  0  0  0  0  0  0  0
   10.5442   -3.9891   27.0644 C   0  0  0  0  0  0  0  0  0  0  0  0
   11.3477   -2.9874   26.2890 C   0  0  0  0  0  0  0  0  0  0  0  0
   12.8462   -3.0186   26.3504 C   0  0  0  0  0  0  0  0  0  0  0  0
   13.6495   -2.0169   25.5750 C   0  0  0  0  0  0  0  0  0  0  0  0
   12.9545   -0.9840   24.7384 C   0  0  0  0  0  0  0  0  0  0  0  0
   11.4561   -0.9527   24.6770 C   0  0  0  0  0  0  0  0  0  0  0  0
   10.6527   -1.9544   25.4524 C   0  0  0  0  0  0  0  0  0  0  0  0
    7.9220    1.3084   21.4012 C   0  0  0  0  0  0  0  0  0  0  0  0
    8.9436    2.3773   21.1488 O   0  0  0  0  0  0  0  0  0  0  0  0
    8.9624    2.8385   20.2957 H   0  0  0  0  0  0  0  0  0  0  0  0
    5.2817    3.4793   21.3610 C   0  0  0  0  0  0  0  0  0  0  0  0
    1.7430    4.0508   19.6580 C   0  0  0  0  0  0  0  0  0  0  0  0
    2.9546    4.2664   20.5156 N   0  0  0  0  0  0  0  0  0  0  0  0
    4.0701    3.2638   20.5034 C   0  0  0  0  0  0  0  0  0  0  0  0
    3.9741    2.0454   19.6336 O   0  0  0  0  0  0  0  0  0  0  0  0
    3.0176    5.0660   21.0865 H   0  0  0  0  0  0  0  0  0  0  0  0
 32 33  1  0  0  0
 33 34  1  0  0  0
 34 35  2  0  0  0
 34 31  1  0  0  0
 31  1  1  0  0  0
  1  2  1  0  0  0
  3  2  1  0  0  0
  3  4  1  0  0  0
  4  5  2  0  0  0
  4  6  1  0  0  0
  6 18  1  0  0  0
 18 19  2  0  0  0
 19 20  1  0  0  0
 20 21  2  0  0  0
 21 22  1  0  0  0
 22 23  2  0  0  0
 23 24  1  0  0  0
 24 25  2  0  0  0
 25 26  1  0  0  0
 26 27  2  0  0  0
  6  7  1  0  0  0
  7  8  1  0  0  0
  8 28  1  0  0  0
 28 29  1  0  0  0
  3  9  1  0  0  0
  9 10  2  0  0  0
 10 11  1  0  0  0
 11 12  1  0  0  0
 11 13  2  0  0  0
 13 14  1  0  0  0
 14 15  2  0  0  0
 15 16  1  0  0  0
 16 17  2  0  0  0
 16  1  1  0  0  0
  8  3  1  0  0  0
 15  9  1  0  0  0
 27 18  1  0  0  0
 27 22  1  0  0  0
 33 36  1  0  0  0
 29 30  1  0  0  0
M  END
> <minimizedAffinity>
-7.44113

> <CNNscore>
0.3155262172

> <CNNaffinity>
6.1744966507

> <CNN_VS>
1.9482156038

> <CNNaffinity_variance>
0.3264887333

$$$$



 36 40  0  0  0  0  0  0  0  0999 V2000
    4.8168    1.5956   21.7677 N   0  0  0  0  0  0  0  0  0  0  0  0
    5.7195    0.4064   21.9119 C   0  0  0  0  0  0  0  0  0  0  0  0
    7.1584    0.5985   22.2894 C   0  0  0  0  0  0  0  0  0  0  0  0
    8.6116    0.6344   22.6595 C   0  0  0  0  0  0  0  0  0  0  0  0
    9.4821    1.4356   22.9364 O   0  0  0  0  0  0  0  0  0  0  0  0
    9.1179   -0.7773   22.6876 N   0  0  0  0  0  0  0  0  0  0  0  0
    7.9775   -1.6858   22.3349 C   0  0  0  0  0  0  0  0  0  0  0  0
    6.7666   -0.8355   22.0888 C   0  0  0  0  0  0  0  0  0  0  0  0
    7.6946    1.9798   22.5228 C   0  0  0  0  0  0  0  0  0  0  0  0
    9.1336    2.1719   22.9003 C   0  0  0  0  0  0  0  0  0  0  0  0
    9.6697    3.5532   23.1337 C   0  0  0  0  0  0  0  0  0  0  0  0
   11.1087    3.7454   23.5113 Cl  0  0  0  0  0  0  0  0  0  0  0  0
    8.7669    4.7424   22.9895 C   0  0  0  0  0  0  0  0  0  0  0  0
    7.3280    4.5503   22.6120 C   0  0  0  0  0  0  0  0  0  0  0  0
    6.7919    3.1690   22.3786 C   0  0  0  0  0  0  0  0  0  0  0  0
    5.3529    2.9769   22.0010 C   0  0  0  0  0  0  0  0  0  0  0  0
    4.4501    4.1661   21.8569 O   0  0  0  0  0  0  0  0  0  0  0  0
   10.5185   -1.2054   23.0116 C   0  0  0  0  0  0  0  0  0  0  0  0
   11.6372   -0.8913   22.0630 C   0  0  0  0  0  0  0  0  0  0  0  0
   13.0378   -1.3193   22.3869 N   0  0  0  0  0  0  0  0  0  0  0  0
   13.3198   -2.0616   23.6595 C   0  0  0  0  0  0  0  0  0  0  0  0
   12.2011   -2.3758   24.6082 C   0  0  0  0  0  0  0  0  0  0  0  0
   12.4831   -3.1181   25.8808 C   0  0  0  0  0  0  0  0  0  0  0  0
   11.3643   -3.4322   26.8294 C   0  0  0  0  0  0  0  0  0  0  0  0
    9.9637   -3.0041   26.5054 C   0  0  0  0  0  0  0  0  0  0  0  0
    9.6818   -2.2619   25.2328 C   0  0  0  0  0  0  0  0  0  0  0  0
   10.8004   -1.9477   24.2842 C   0  0  0  0  0  0  0  0  0  0  0  0
    5.4031   -1.3320   21.7088 C   0  0  0  0  0  0  0  0  0  0  0  0
    5.2166   -2.7569   21.2790 O   0  0  0  0  0  0  0  0  0  0  0  0
    4.3349   -3.0779   21.0333 H   0  0  0  0  0  0  0  0  0  0  0  0
    3.3778    1.4034   21.3901 C   0  0  0  0  0  0  0  0  0  0  0  0
    1.1994    4.2050   19.6137 C   0  0  0  0  0  0  0  0  0  0  0  0
    1.8135    3.3545   20.6859 N   0  0  0  0  0  0  0  0  0  0  0  0
    2.7637    2.2539   20.3179 C   0  0  0  0  0  0  0  0  0  0  0  0
    3.1000    2.0036   18.8776 O   0  0  0  0  0  0  0  0  0  0  0  0
    1.5928    3.5188   21.6312 H   0  0  0  0  0  0  0  0  0  0  0  0
 32 33  1  0  0  0
 33 34  1  0  0  0
 34 35  2  0  0  0
 34 31  1  0  0  0
 31  1  1  0  0  0
  1  2  1  0  0  0
  3  2  1  0  0  0
  3  4  1  0  0  0
  4  5  2  0  0  0
  4  6  1  0  0  0
  6 18  1  0  0  0
 18 19  2  0  0  0
 19 20  1  0  0  0
 20 21  2  0  0  0
 21 22  1  0  0  0
 22 23  2  0  0  0
 23 24  1  0  0  0
 24 25  2  0  0  0
 25 26  1  0  0  0
 26 27  2  0  0  0
  6  7  1  0  0  0
  7  8  1  0  0  0
  8 28  1  0  0  0
 28 29  1  0  0  0
  3  9  1  0  0  0
  9 10  2  0  0  0
 10 11  1  0  0  0
 11 12  1  0  0  0
 11 13  2  0  0  0
 13 14  1  0  0  0
 14 15  2  0  0  0
 15 16  1  0  0  0
 16 17  2  0  0  0
 16  1  1  0  0  0
  8  3  1  0  0  0
 15  9  1  0  0  0
 27 18  1  0  0  0
 27 22  1  0  0  0
 33 36  1  0  0  0
 29 30  1  0  0  0
M  END
> <minimizedAffinity>
-7.43975

> <CNNscore>
0.3081367314

> <CNNaffinity>
6.3291273117

> <CNN_VS>
1.9502365589

> <CNNaffinity_variance>
0.3002094626

$$$$



 36 40  0  0  0  0  0  0  0  0999 V2000
    7.1622    4.6171   24.2593 N   0  0  0  0  0  0  0  0  0  0  0  0
    7.7976    3.3450   23.7816 C   0  0  0  0  0  0  0  0  0  0  0  0
    7.6141    2.0764   24.5606 C   0  0  0  0  0  0  0  0  0  0  0  0
    7.5194    0.7377   25.2306 C   0  0  0  0  0  0  0  0  0  0  0  0
    7.0159    0.2193   26.2074 O   0  0  0  0  0  0  0  0  0  0  0  0
    8.3025   -0.2463   24.4131 N   0  0  0  0  0  0  0  0  0  0  0  0
    8.8812    0.4842   23.2377 C   0  0  0  0  0  0  0  0  0  0  0  0
    8.4557    1.9197   23.3289 C   0  0  0  0  0  0  0  0  0  0  0  0
    6.7952    2.0798   25.8174 C   0  0  0  0  0  0  0  0  0  0  0  0
    6.6118    0.8112   26.5964 C   0  0  0  0  0  0  0  0  0  0  0  0
    5.7930    0.8146   27.8532 C   0  0  0  0  0  0  0  0  0  0  0  0
    5.6095   -0.4541   28.6322 Cl  0  0  0  0  0  0  0  0  0  0  0  0
    5.1576    2.0866   28.3309 C   0  0  0  0  0  0  0  0  0  0  0  0
    5.3410    3.3552   27.5519 C   0  0  0  0  0  0  0  0  0  0  0  0
    6.1599    3.3518   26.2951 C   0  0  0  0  0  0  0  0  0  0  0  0
    6.3434    4.6205   25.5161 C   0  0  0  0  0  0  0  0  0  0  0  0
    5.7080    5.8925   25.9938 O   0  0  0  0  0  0  0  0  0  0  0  0
    8.4764   -1.7048   24.7175 C   0  0  0  0  0  0  0  0  0  0  0  0
    7.3526   -2.6641   24.4590 C   0  0  0  0  0  0  0  0  0  0  0  0
    7.5264   -4.1225   24.7634 N   0  0  0  0  0  0  0  0  0  0  0  0
    8.8241   -4.6217   25.3263 C   0  0  0  0  0  0  0  0  0  0  0  0
    9.9479   -3.6624   25.5847 C   0  0  0  0  0  0  0  0  0  0  0  0
   11.2457   -4.1616   26.1476 C   0  0  0  0  0  0  0  0  0  0  0  0
   12.3694   -3.2022   26.4060 C   0  0  0  0  0  0  0  0  0  0  0  0
   12.1956   -1.7438   26.1017 C   0  0  0  0  0  0  0  0  0  0  0  0
   10.8979   -1.2446   25.5388 C   0  0  0  0  0  0  0  0  0  0  0  0
    9.7741   -2.2039   25.2803 C   0  0  0  0  0  0  0  0  0  0  0  0
    8.8098    3.0075   22.3586 C   0  0  0  0  0  0  0  0  0  0  0  0
    9.9257    2.8034   21.3775 O   0  0  0  0  0  0  0  0  0  0  0  0
   10.1546    3.5069   20.7501 H   0  0  0  0  0  0  0  0  0  0  0  0
    7.3457    5.8857   23.4802 C   0  0  0  0  0  0  0  0  0  0  0  0
   10.9062    7.2938   22.4361 C   0  0  0  0  0  0  0  0  0  0  0  0
    9.5993    6.5599   22.3772 N   0  0  0  0  0  0  0  0  0  0  0  0
    8.6526    6.6196   23.5391 C   0  0  0  0  0  0  0  0  0  0  0  0
    9.0127    7.4133   24.7600 O   0  0  0  0  0  0  0  0  0  0  0  0
    9.3629    6.0390   21.5759 H   0  0  0  0  0  0  0  0  0  0  0  0
 32 33  1  0  0  0
 33 34  1  0  0  0
 34 35  2  0  0  0
 34 31  1  0  0  0
 31  1  1  0  0  0
  1  2  1  0  0  0
  3  2  1  0  0  0
  3  4  1  0  0  0
  4  5  2  0  0  0
  4  6  1  0  0  0
  6 18  1  0  0  0
 18 19  2  0  0  0
 19 20  1  0  0  0
 20 21  2  0  0  0
 21 22  1  0  0  0
 22 23  2  0  0  0
 23 24  1  0  0  0
 24 25  2  0  0  0
 25 26  1  0  0  0
 26 27  2  0  0  0
  6  7  1  0  0  0
  7  8  1  0  0  0
  8 28  1  0  0  0
 28 29  1  0  0  0
  3  9  1  0  0  0
  9 10  2  0  0  0
 10 11  1  0  0  0
 11 12  1  0  0  0
 11 13  2  0  0  0
 13 14  1  0  0  0
 14 15  2  0  0  0
 15 16  1  0  0  0
 16 17  2  0  0  0
 16  1  1  0  0  0
  8  3  1  0  0  0
 15  9  1  0  0  0
 27 18  1  0  0  0
 27 22  1  0  0  0
 33 36  1  0  0  0
 29 30  1  0  0  0
M  END
> <minimizedAffinity>
-7.25552

> <CNNscore>
0.3042457104

> <CNNaffinity>
5.8836426735

> <CNN_VS>
1.7900730371

> <CNNaffinity_variance>
0.3274496198

$$$$



 36 40  0  0  0  0  0  0  0  0999 V2000
    3.9269   -5.0534   26.2223 N   0  0  0  0  0  0  0  0  0  0  0  0
    5.1994   -5.1808   25.4385 C   0  0  0  0  0  0  0  0  0  0  0  0
    6.1126   -3.9997   25.2938 C   0  0  0  0  0  0  0  0  0  0  0  0
    7.1193   -2.9116   25.0640 C   0  0  0  0  0  0  0  0  0  0  0  0
    7.3058   -1.7429   25.3390 O   0  0  0  0  0  0  0  0  0  0  0  0
    8.2308   -3.4770   24.2303 N   0  0  0  0  0  0  0  0  0  0  0  0
    7.9110   -4.9144   23.9448 C   0  0  0  0  0  0  0  0  0  0  0  0
    6.6019   -5.2374   24.6021 C   0  0  0  0  0  0  0  0  0  0  0  0
    5.7533   -2.6910   25.9330 C   0  0  0  0  0  0  0  0  0  0  0  0
    6.6665   -1.5099   25.7883 C   0  0  0  0  0  0  0  0  0  0  0  0
    6.3071   -0.2014   26.4275 C   0  0  0  0  0  0  0  0  0  0  0  0
    7.2203    0.9798   26.2828 Cl  0  0  0  0  0  0  0  0  0  0  0  0
    5.0346   -0.0740   27.2113 C   0  0  0  0  0  0  0  0  0  0  0  0
    4.1214   -1.2551   27.3560 C   0  0  0  0  0  0  0  0  0  0  0  0
    4.4807   -2.5636   26.7168 C   0  0  0  0  0  0  0  0  0  0  0  0
    3.5675   -3.7449   26.8615 C   0  0  0  0  0  0  0  0  0  0  0  0
    2.2950   -3.6175   27.6453 O   0  0  0  0  0  0  0  0  0  0  0  0
    9.4482   -2.7351   23.7640 C   0  0  0  0  0  0  0  0  0  0  0  0
    9.4129   -1.9720   22.4731 C   0  0  0  0  0  0  0  0  0  0  0  0
   10.6303   -1.2302   22.0068 N   0  0  0  0  0  0  0  0  0  0  0  0
   11.8831   -1.2514   22.8314 C   0  0  0  0  0  0  0  0  0  0  0  0
   11.9184   -2.0144   24.1223 C   0  0  0  0  0  0  0  0  0  0  0  0
   13.1713   -2.0356   24.9470 C   0  0  0  0  0  0  0  0  0  0  0  0
   13.2066   -2.7987   26.2379 C   0  0  0  0  0  0  0  0  0  0  0  0
   11.9891   -3.5406   26.7042 C   0  0  0  0  0  0  0  0  0  0  0  0
   10.7363   -3.5194   25.8796 C   0  0  0  0  0  0  0  0  0  0  0  0
   10.7010   -2.7563   24.5886 C   0  0  0  0  0  0  0  0  0  0  0  0
    5.9046   -6.5652   24.5728 C   0  0  0  0  0  0  0  0  0  0  0  0
    6.2104   -7.5491   23.4827 O   0  0  0  0  0  0  0  0  0  0  0  0
    5.7594   -8.4076   23.4638 H   0  0  0  0  0  0  0  0  0  0  0  0
    3.0137   -6.2346   26.3670 C   0  0  0  0  0  0  0  0  0  0  0  0
   -0.2729   -7.3757   24.4574 C   0  0  0  0  0  0  0  0  0  0  0  0
    0.6674   -7.0141   25.5688 N   0  0  0  0  0  0  0  0  0  0  0  0
    2.0735   -6.5962   25.2556 C   0  0  0  0  0  0  0  0  0  0  0  0
    2.5394   -6.5400   23.8308 O   0  0  0  0  0  0  0  0  0  0  0  0
    0.3615   -7.0510   26.5039 H   0  0  0  0  0  0  0  0  0  0  0  0
 32 33  1  0  0  0
 33 34  1  0  0  0
 34 35  2  0  0  0
 34 31  1  0  0  0
 31  1  1  0  0  0
  1  2  1  0  0  0
  3  2  1  0  0  0
  3  4  1  0  0  0
  4  5  2  0  0  0
  4  6  1  0  0  0
  6 18  1  0  0  0
 18 19  2  0  0  0
 19 20  1  0  0  0
 20 21  2  0  0  0
 21 22  1  0  0  0
 22 23  2  0  0  0
 23 24  1  0  0  0
 24 25  2  0  0  0
 25 26  1  0  0  0
 26 27  2  0  0  0
  6  7  1  0  0  0
  7  8  1  0  0  0
  8 28  1  0  0  0
 28 29  1  0  0  0
  3  9  1  0  0  0
  9 10  2  0  0  0
 10 11  1  0  0  0
 11 12  1  0  0  0
 11 13  2  0  0  0
 13 14  1  0  0  0
 14 15  2  0  0  0
 15 16  1  0  0  0
 16 17  2  0  0  0
 16  1  1  0  0  0
  8  3  1  0  0  0
 15  9  1  0  0  0
 27 18  1  0  0  0
 27 22  1  0  0  0
 33 36  1  0  0  0
 29 30  1  0  0  0
M  END
> <minimizedAffinity>
-7.35135

> <CNNscore>
0.2632438242

> <CNNaffinity>
6.0947313309

> <CNN_VS>
1.6044003963

> <CNNaffinity_variance>
0.0675598308

$$$$
