


 35 40  0  0  0  0  0  0  0  0999 V2000
  -10.9984   -2.7615  -24.5772 C   0  0  0  0  0  0  0  0  0  0  0  0
  -10.5451   -1.4629  -23.9786 C   0  0  0  0  0  0  0  0  0  0  0  0
  -11.6138   -0.4121  -24.0410 C   0  0  0  0  0  0  0  0  0  0  0  0
  -11.0685    0.8409  -23.4223 N   0  0  0  0  0  0  0  0  0  0  0  0
   -9.6629    0.5644  -22.9775 C   0  0  0  0  0  0  0  0  0  0  0  0
   -8.7424    1.5404  -22.3066 O   0  0  0  0  0  0  0  0  0  0  0  0
   -9.3394   -0.8594  -23.3213 C   0  0  0  0  0  0  0  0  0  0  0  0
   -8.2168   -0.1232  -22.6521 C   0  0  0  0  0  0  0  0  0  0  0  0
   -6.9161   -0.8210  -22.3855 N   0  0  0  0  0  0  0  0  0  0  0  0
   -6.7379   -2.2549  -22.7879 C   0  0  0  0  0  0  0  0  0  0  0  0
   -5.4371   -2.9527  -22.5213 O   0  0  0  0  0  0  0  0  0  0  0  0
   -7.8605   -2.9911  -23.4571 C   0  0  0  0  0  0  0  0  0  0  0  0
   -7.6823   -4.4251  -23.8596 C   0  0  0  0  0  0  0  0  0  0  0  0
   -8.8049   -5.1613  -24.5288 C   0  0  0  0  0  0  0  0  0  0  0  0
  -10.1057   -4.4635  -24.7954 C   0  0  0  0  0  0  0  0  0  0  0  0
  -11.2283   -5.1998  -25.4646 F   0  0  0  0  0  0  0  0  0  0  0  0
  -10.2839   -3.0296  -24.3929 C   0  0  0  0  0  0  0  0  0  0  0  0
   -9.1613   -2.2934  -23.7238 C   0  0  0  0  0  0  0  0  0  0  0  0
  -11.8004    2.1418  -23.2743 C   0  0  0  0  0  0  0  0  0  0  0  0
  -12.9258    2.2615  -22.2901 C   0  0  0  0  0  0  0  0  0  0  0  0
  -13.6577    3.5625  -22.1422 N   0  0  0  0  0  0  0  0  0  0  0  0
  -13.2639    4.7437  -22.9785 C   0  0  0  0  0  0  0  0  0  0  0  0
  -12.1384    4.6241  -23.9628 C   0  0  0  0  0  0  0  0  0  0  0  0
  -11.7446    5.8055  -24.7991 C   0  0  0  0  0  0  0  0  0  0  0  0
  -10.6190    5.6857  -25.7834 C   0  0  0  0  0  0  0  0  0  0  0  0
   -9.8873    4.3847  -25.9313 C   0  0  0  0  0  0  0  0  0  0  0  0
  -10.2810    3.2034  -25.0949 C   0  0  0  0  0  0  0  0  0  0  0  0
  -11.4065    3.3231  -24.1107 C   0  0  0  0  0  0  0  0  0  0  0  0
   -5.7934   -0.0847  -21.7163 C   0  0  0  0  0  0  0  0  0  0  0  0
   -5.7368   -0.0034  -20.2196 C   0  0  0  0  0  0  0  0  0  0  0  0
   -6.7429   -0.5776  -19.2667 N   0  0  0  0  0  0  0  0  0  0  0  0
   -6.2920   -0.2627  -17.8711 N   0  0  0  0  0  0  0  0  0  0  0  0
   -5.0072    0.5061  -17.9616 C   0  0  0  0  0  0  0  0  0  0  0  0
   -4.6640    0.6664  -19.4130 N   0  0  0  0  0  0  0  0  0  0  0  0
   -3.4596    1.3724  -19.9615 C   0  0  0  0  0  0  0  0  0  0  0  0
  2  1  1  0  0  0
  2  3  1  0  0  0
  3  4  1  0  0  0
  4 19  1  0  0  0
 19 20  2  0  0  0
 20 21  1  0  0  0
 21 22  2  0  0  0
 22 23  1  0  0  0
 23 24  2  0  0  0
 24 25  1  0  0  0
 25 26  2  0  0  0
 26 27  1  0  0  0
 27 28  2  0  0  0
  4  5  1  0  0  0
  5  6  2  0  0  0
  5  7  1  0  0  0
  7  8  1  0  0  0
  8  9  1  0  0  0
  9 29  1  0  0  0
 29 30  1  0  0  0
 30 31  2  0  0  0
 31 32  1  0  0  0
 32 33  2  0  0  0
 33 34  1  0  0  0
 34 35  1  0  0  0
  9 10  1  0  0  0
 10 11  2  0  0  0
 10 12  1  0  0  0
 12 13  2  0  0  0
 13 14  1  0  0  0
 14 15  2  0  0  0
 15 16  1  0  0  0
 15 17  1  0  0  0
 17 18  2  0  0  0
  7  2  1  0  0  0
 34 30  1  0  0  0
 18 12  1  0  0  0
 28 19  1  0  0  0
 18  7  1  0  0  0
 28 23  1  0  0  0
M  END
> <minimizedAffinity>
-8.46089

> <CNNscore>
0.6042348742

> <CNNaffinity>
6.7003846169

> <CNN_VS>
4.0486059189

> <CNNaffinity_variance>
0.0231305528

$$$$



 35 40  0  0  0  0  0  0  0  0999 V2000
   -9.6341   -2.4783  -23.7711 C   0  0  0  0  0  0  0  0  0  0  0  0
   -8.3761   -2.7545  -23.0021 C   0  0  0  0  0  0  0  0  0  0  0  0
   -8.0364   -1.6374  -22.0605 C   0  0  0  0  0  0  0  0  0  0  0  0
   -6.7716   -2.0047  -21.3426 N   0  0  0  0  0  0  0  0  0  0  0  0
   -6.3297   -3.3489  -21.8405 C   0  0  0  0  0  0  0  0  0  0  0  0
   -5.1103   -4.0982  -21.3915 O   0  0  0  0  0  0  0  0  0  0  0  0
   -7.3213   -3.8124  -22.8661 C   0  0  0  0  0  0  0  0  0  0  0  0
   -6.1992   -4.7775  -22.6227 C   0  0  0  0  0  0  0  0  0  0  0  0
   -6.1455   -6.0715  -23.3795 N   0  0  0  0  0  0  0  0  0  0  0  0
   -7.2139   -6.4004  -24.3796 C   0  0  0  0  0  0  0  0  0  0  0  0
   -7.1602   -7.6944  -25.1364 O   0  0  0  0  0  0  0  0  0  0  0  0
   -8.3361   -5.4352  -24.6230 C   0  0  0  0  0  0  0  0  0  0  0  0
   -9.4046   -5.7640  -25.6231 C   0  0  0  0  0  0  0  0  0  0  0  0
  -10.5267   -4.7989  -25.8665 C   0  0  0  0  0  0  0  0  0  0  0  0
  -10.5804   -3.5049  -25.1097 C   0  0  0  0  0  0  0  0  0  0  0  0
  -11.7026   -2.5397  -25.3531 F   0  0  0  0  0  0  0  0  0  0  0  0
   -9.5120   -3.1760  -24.1096 C   0  0  0  0  0  0  0  0  0  0  0  0
   -8.3898   -4.1412  -23.8663 C   0  0  0  0  0  0  0  0  0  0  0  0
   -6.0716   -1.1738  -20.3084 C   0  0  0  0  0  0  0  0  0  0  0  0
   -6.5156   -1.2279  -18.8767 C   0  0  0  0  0  0  0  0  0  0  0  0
   -5.8156   -0.3970  -17.8425 N   0  0  0  0  0  0  0  0  0  0  0  0
   -4.6717    0.4880  -18.2400 C   0  0  0  0  0  0  0  0  0  0  0  0
   -4.2277    0.5420  -19.6718 C   0  0  0  0  0  0  0  0  0  0  0  0
   -3.0836    1.4271  -20.0694 C   0  0  0  0  0  0  0  0  0  0  0  0
   -2.6397    1.4811  -21.5011 C   0  0  0  0  0  0  0  0  0  0  0  0
   -3.3397    0.6502  -22.5353 C   0  0  0  0  0  0  0  0  0  0  0  0
   -4.4836   -0.2348  -22.1377 C   0  0  0  0  0  0  0  0  0  0  0  0
   -4.9276   -0.2889  -20.7060 C   0  0  0  0  0  0  0  0  0  0  0  0
   -5.0233   -7.0367  -23.1361 C   0  0  0  0  0  0  0  0  0  0  0  0
   -3.6859   -6.8086  -23.7758 C   0  0  0  0  0  0  0  0  0  0  0  0
   -2.3577   -6.8453  -23.0795 N   0  0  0  0  0  0  0  0  0  0  0  0
   -1.2928   -6.5632  -24.0975 N   0  0  0  0  0  0  0  0  0  0  0  0
   -1.9628   -6.3520  -25.4229 C   0  0  0  0  0  0  0  0  0  0  0  0
   -3.4417   -6.5037  -25.2240 N   0  0  0  0  0  0  0  0  0  0  0  0
   -4.4922   -6.3734  -26.2868 C   0  0  0  0  0  0  0  0  0  0  0  0
  2  1  1  0  0  0
  2  3  1  0  0  0
  3  4  1  0  0  0
  4 19  1  0  0  0
 19 20  2  0  0  0
 20 21  1  0  0  0
 21 22  2  0  0  0
 22 23  1  0  0  0
 23 24  2  0  0  0
 24 25  1  0  0  0
 25 26  2  0  0  0
 26 27  1  0  0  0
 27 28  2  0  0  0
  4  5  1  0  0  0
  5  6  2  0  0  0
  5  7  1  0  0  0
  7  8  1  0  0  0
  8  9  1  0  0  0
  9 29  1  0  0  0
 29 30  1  0  0  0
 30 31  2  0  0  0
 31 32  1  0  0  0
 32 33  2  0  0  0
 33 34  1  0  0  0
 34 35  1  0  0  0
  9 10  1  0  0  0
 10 11  2  0  0  0
 10 12  1  0  0  0
 12 13  2  0  0  0
 13 14  1  0  0  0
 14 15  2  0  0  0
 15 16  1  0  0  0
 15 17  1  0  0  0
 17 18  2  0  0  0
  7  2  1  0  0  0
 34 30  1  0  0  0
 18 12  1  0  0  0
 28 19  1  0  0  0
 18  7  1  0  0  0
 28 23  1  0  0  0
M  END
> <minimizedAffinity>
-8.20543

> <CNNscore>
0.5373077989

> <CNNaffinity>
6.5297622681

> <CNN_VS>
3.5084922314

> <CNNaffinity_variance>
0.1192294210

$$$$



 35 40  0  0  0  0  0  0  0  0999 V2000
   -9.9977   -4.4951  -25.3772 C   0  0  0  0  0  0  0  0  0  0  0  0
   -9.5749   -3.3434  -24.5141 C   0  0  0  0  0  0  0  0  0  0  0  0
  -10.4601   -2.1468  -24.7007 C   0  0  0  0  0  0  0  0  0  0  0  0
   -9.9599   -1.0555  -23.8014 N   0  0  0  0  0  0  0  0  0  0  0  0
   -8.7656   -1.5776  -23.0590 C   0  0  0  0  0  0  0  0  0  0  0  0
   -7.9521   -0.8188  -22.0528 O   0  0  0  0  0  0  0  0  0  0  0  0
   -8.5277   -2.9916  -23.4995 C   0  0  0  0  0  0  0  0  0  0  0  0
   -7.5479   -2.4982  -22.4765 C   0  0  0  0  0  0  0  0  0  0  0  0
   -6.4547   -3.4017  -21.9881 N   0  0  0  0  0  0  0  0  0  0  0  0
   -6.3413   -4.7986  -22.5227 C   0  0  0  0  0  0  0  0  0  0  0  0
   -5.2480   -5.7021  -22.0343 O   0  0  0  0  0  0  0  0  0  0  0  0
   -7.3211   -5.2920  -23.5457 C   0  0  0  0  0  0  0  0  0  0  0  0
   -7.2077   -6.6889  -24.0803 C   0  0  0  0  0  0  0  0  0  0  0  0
   -8.1874   -7.1823  -25.1033 C   0  0  0  0  0  0  0  0  0  0  0  0
   -9.2807   -6.2787  -25.5917 C   0  0  0  0  0  0  0  0  0  0  0  0
  -10.2605   -6.7722  -26.6148 F   0  0  0  0  0  0  0  0  0  0  0  0
   -9.3941   -4.8819  -25.0571 C   0  0  0  0  0  0  0  0  0  0  0  0
   -8.4143   -4.3885  -24.0341 C   0  0  0  0  0  0  0  0  0  0  0  0
  -10.5503    0.3170  -23.6680 C   0  0  0  0  0  0  0  0  0  0  0  0
  -11.8082    0.5185  -22.8764 C   0  0  0  0  0  0  0  0  0  0  0  0
  -12.3986    1.8909  -22.7429 N   0  0  0  0  0  0  0  0  0  0  0  0
  -11.7309    3.0618  -23.4010 C   0  0  0  0  0  0  0  0  0  0  0  0
  -10.4729    2.8603  -24.1927 C   0  0  0  0  0  0  0  0  0  0  0  0
   -9.8052    4.0312  -24.8509 C   0  0  0  0  0  0  0  0  0  0  0  0
   -8.5471    3.8296  -25.6425 C   0  0  0  0  0  0  0  0  0  0  0  0
   -7.9568    2.4572  -25.7759 C   0  0  0  0  0  0  0  0  0  0  0  0
   -8.6245    1.2863  -25.1178 C   0  0  0  0  0  0  0  0  0  0  0  0
   -9.8825    1.4878  -24.3262 C   0  0  0  0  0  0  0  0  0  0  0  0
   -5.4749   -2.9083  -20.9650 C   0  0  0  0  0  0  0  0  0  0  0  0
   -5.8371   -1.7579  -20.0732 C   0  0  0  0  0  0  0  0  0  0  0  0
   -6.8365   -1.7898  -18.9550 N   0  0  0  0  0  0  0  0  0  0  0  0
   -6.8807   -0.4253  -18.3337 N   0  0  0  0  0  0  0  0  0  0  0  0
   -5.9085    0.4500  -19.0680 C   0  0  0  0  0  0  0  0  0  0  0  0
   -5.2636   -0.3737  -20.1430 N   0  0  0  0  0  0  0  0  0  0  0  0
   -4.2272    0.1033  -21.1168 C   0  0  0  0  0  0  0  0  0  0  0  0
  2  1  1  0  0  0
  2  3  1  0  0  0
  3  4  1  0  0  0
  4 19  1  0  0  0
 19 20  2  0  0  0
 20 21  1  0  0  0
 21 22  2  0  0  0
 22 23  1  0  0  0
 23 24  2  0  0  0
 24 25  1  0  0  0
 25 26  2  0  0  0
 26 27  1  0  0  0
 27 28  2  0  0  0
  4  5  1  0  0  0
  5  6  2  0  0  0
  5  7  1  0  0  0
  7  8  1  0  0  0
  8  9  1  0  0  0
  9 29  1  0  0  0
 29 30  1  0  0  0
 30 31  2  0  0  0
 31 32  1  0  0  0
 32 33  2  0  0  0
 33 34  1  0  0  0
 34 35  1  0  0  0
  9 10  1  0  0  0
 10 11  2  0  0  0
 10 12  1  0  0  0
 12 13  2  0  0  0
 13 14  1  0  0  0
 14 15  2  0  0  0
 15 16  1  0  0  0
 15 17  1  0  0  0
 17 18  2  0  0  0
  7  2  1  0  0  0
 34 30  1  0  0  0
 18 12  1  0  0  0
 28 19  1  0  0  0
 18  7  1  0  0  0
 28 23  1  0  0  0
M  END
> <minimizedAffinity>
-8.21862

> <CNNscore>
0.4100414515

> <CNNaffinity>
6.5279679298

> <CNN_VS>
2.6767375469

> <CNNaffinity_variance>
0.1624237299

$$$$



 35 40  0  0  0  0  0  0  0  0999 V2000
   -5.9029    4.0743  -23.9411 C   0  0  0  0  0  0  0  0  0  0  0  0
   -6.7385    3.0098  -23.2939 C   0  0  0  0  0  0  0  0  0  0  0  0
   -8.1173    2.9435  -23.8809 C   0  0  0  0  0  0  0  0  0  0  0  0
   -8.8707    1.8567  -23.1730 N   0  0  0  0  0  0  0  0  0  0  0  0
   -7.9575    1.2513  -22.1484 C   0  0  0  0  0  0  0  0  0  0  0  0
   -8.3017    0.1301  -21.2133 O   0  0  0  0  0  0  0  0  0  0  0  0
   -6.6397    1.9640  -22.2232 C   0  0  0  0  0  0  0  0  0  0  0  0
   -6.6897    0.8811  -21.1865 C   0  0  0  0  0  0  0  0  0  0  0  0
   -5.4847    0.5977  -20.3393 N   0  0  0  0  0  0  0  0  0  0  0  0
   -4.2298    1.3972  -20.5288 C   0  0  0  0  0  0  0  0  0  0  0  0
   -3.0249    1.1138  -19.6816 O   0  0  0  0  0  0  0  0  0  0  0  0
   -4.1798    2.4802  -21.5655 C   0  0  0  0  0  0  0  0  0  0  0  0
   -2.9249    3.2797  -21.7550 C   0  0  0  0  0  0  0  0  0  0  0  0
   -2.8750    4.3626  -22.7917 C   0  0  0  0  0  0  0  0  0  0  0  0
   -4.0799    4.6459  -23.6390 C   0  0  0  0  0  0  0  0  0  0  0  0
   -4.0299    5.7289  -24.6757 F   0  0  0  0  0  0  0  0  0  0  0  0
   -5.3348    3.8464  -23.4495 C   0  0  0  0  0  0  0  0  0  0  0  0
   -5.3848    2.7636  -22.4127 C   0  0  0  0  0  0  0  0  0  0  0  0
  -10.2884    1.4471  -23.4422 C   0  0  0  0  0  0  0  0  0  0  0  0
  -10.6281   -0.0021  -23.6270 C   0  0  0  0  0  0  0  0  0  0  0  0
  -12.0458   -0.4117  -23.8962 N   0  0  0  0  0  0  0  0  0  0  0  0
  -13.1236    0.6280  -23.9807 C   0  0  0  0  0  0  0  0  0  0  0  0
  -12.7838    2.0773  -23.7959 C   0  0  0  0  0  0  0  0  0  0  0  0
  -13.8618    3.1171  -23.8803 C   0  0  0  0  0  0  0  0  0  0  0  0
  -13.5219    4.5663  -23.6955 C   0  0  0  0  0  0  0  0  0  0  0  0
  -12.1043    4.9758  -23.4263 C   0  0  0  0  0  0  0  0  0  0  0  0
  -11.0265    3.9361  -23.3419 C   0  0  0  0  0  0  0  0  0  0  0  0
  -11.3662    2.4869  -23.5266 C   0  0  0  0  0  0  0  0  0  0  0  0
   -5.5347   -0.4852  -19.3025 C   0  0  0  0  0  0  0  0  0  0  0  0
   -5.4751   -1.9251  -19.7186 C   0  0  0  0  0  0  0  0  0  0  0  0
   -5.3947   -3.1064  -18.7976 N   0  0  0  0  0  0  0  0  0  0  0  0
   -5.3553   -4.3479  -19.6384 N   0  0  0  0  0  0  0  0  0  0  0  0
   -5.4112   -3.9339  -21.0791 C   0  0  0  0  0  0  0  0  0  0  0  0
   -5.4853   -2.4366  -21.1286 N   0  0  0  0  0  0  0  0  0  0  0  0
   -5.5569   -1.5980  -22.3702 C   0  0  0  0  0  0  0  0  0  0  0  0
  2  1  1  0  0  0
  2  3  1  0  0  0
  3  4  1  0  0  0
  4 19  1  0  0  0
 19 20  2  0  0  0
 20 21  1  0  0  0
 21 22  2  0  0  0
 22 23  1  0  0  0
 23 24  2  0  0  0
 24 25  1  0  0  0
 25 26  2  0  0  0
 26 27  1  0  0  0
 27 28  2  0  0  0
  4  5  1  0  0  0
  5  6  2  0  0  0
  5  7  1  0  0  0
  7  8  1  0  0  0
  8  9  1  0  0  0
  9 29  1  0  0  0
 29 30  1  0  0  0
 30 31  2  0  0  0
 31 32  1  0  0  0
 32 33  2  0  0  0
 33 34  1  0  0  0
 34 35  1  0  0  0
  9 10  1  0  0  0
 10 11  2  0  0  0
 10 12  1  0  0  0
 12 13  2  0  0  0
 13 14  1  0  0  0
 14 15  2  0  0  0
 15 16  1  0  0  0
 15 17  1  0  0  0
 17 18  2  0  0  0
  7  2  1  0  0  0
 34 30  1  0  0  0
 18 12  1  0  0  0
 28 19  1  0  0  0
 18  7  1  0  0  0
 28 23  1  0  0  0
M  END
> <minimizedAffinity>
-8.90364

> <CNNscore>
0.3103669286

> <CNNaffinity>
5.9824738503

> <CNN_VS>
1.8567620516

> <CNNaffinity_variance>
0.2673228979

$$$$



 35 40  0  0  0  0  0  0  0  0999 V2000
   -5.8030   -5.5224  -23.0675 C   0  0  0  0  0  0  0  0  0  0  0  0
   -6.4071   -4.2493  -22.5532 C   0  0  0  0  0  0  0  0  0  0  0  0
   -5.5435   -3.5972  -21.5145 C   0  0  0  0  0  0  0  0  0  0  0  0
   -6.2281   -2.3404  -21.0651 N   0  0  0  0  0  0  0  0  0  0  0  0
   -7.5147   -2.2159  -21.8261 C   0  0  0  0  0  0  0  0  0  0  0  0
   -8.5150   -1.1063  -21.6911 O   0  0  0  0  0  0  0  0  0  0  0  0
   -7.6253   -3.3957  -22.7458 C   0  0  0  0  0  0  0  0  0  0  0  0
   -8.7833   -2.4460  -22.8298 C   0  0  0  0  0  0  0  0  0  0  0  0
   -9.9137   -2.7234  -23.7760 N   0  0  0  0  0  0  0  0  0  0  0  0
   -9.8861   -3.9504  -24.6382 C   0  0  0  0  0  0  0  0  0  0  0  0
  -11.0165   -4.2278  -25.5844 O   0  0  0  0  0  0  0  0  0  0  0  0
   -8.7281   -4.9002  -24.5543 C   0  0  0  0  0  0  0  0  0  0  0  0
   -8.7005   -6.1272  -25.4166 C   0  0  0  0  0  0  0  0  0  0  0  0
   -7.5424   -7.0769  -25.3327 C   0  0  0  0  0  0  0  0  0  0  0  0
   -6.4120   -6.7995  -24.3865 C   0  0  0  0  0  0  0  0  0  0  0  0
   -5.2540   -7.7493  -24.3026 F   0  0  0  0  0  0  0  0  0  0  0  0
   -6.4397   -5.5725  -23.5242 C   0  0  0  0  0  0  0  0  0  0  0  0
   -7.5977   -4.6228  -23.6081 C   0  0  0  0  0  0  0  0  0  0  0  0
   -5.7159   -1.3773  -20.0355 C   0  0  0  0  0  0  0  0  0  0  0  0
   -6.1656   -1.4948  -18.6094 C   0  0  0  0  0  0  0  0  0  0  0  0
   -5.6534   -0.5316  -17.5798 N   0  0  0  0  0  0  0  0  0  0  0  0
   -4.6917    0.5489  -17.9764 C   0  0  0  0  0  0  0  0  0  0  0  0
   -4.2420    0.6664  -19.4026 C   0  0  0  0  0  0  0  0  0  0  0  0
   -3.2802    1.7471  -19.7992 C   0  0  0  0  0  0  0  0  0  0  0  0
   -2.8306    1.8644  -21.2254 C   0  0  0  0  0  0  0  0  0  0  0  0
   -3.3428    0.9013  -22.2549 C   0  0  0  0  0  0  0  0  0  0  0  0
   -4.3045   -0.1793  -21.8583 C   0  0  0  0  0  0  0  0  0  0  0  0
   -4.7541   -0.2967  -20.4322 C   0  0  0  0  0  0  0  0  0  0  0  0
  -11.0718   -1.7736  -23.8598 C   0  0  0  0  0  0  0  0  0  0  0  0
  -10.8258   -0.3052  -24.0422 C   0  0  0  0  0  0  0  0  0  0  0  0
   -9.5621    0.3202  -24.5540 N   0  0  0  0  0  0  0  0  0  0  0  0
   -9.7556    1.8075  -24.5729 N   0  0  0  0  0  0  0  0  0  0  0  0
  -11.1389    2.1013  -24.0728 C   0  0  0  0  0  0  0  0  0  0  0  0
  -11.8003    0.7956  -23.7449 N   0  0  0  0  0  0  0  0  0  0  0  0
  -13.1920    0.6213  -23.2129 C   0  0  0  0  0  0  0  0  0  0  0  0
  2  1  1  0  0  0
  2  3  1  0  0  0
  3  4  1  0  0  0
  4 19  1  0  0  0
 19 20  2  0  0  0
 20 21  1  0  0  0
 21 22  2  0  0  0
 22 23  1  0  0  0
 23 24  2  0  0  0
 24 25  1  0  0  0
 25 26  2  0  0  0
 26 27  1  0  0  0
 27 28  2  0  0  0
  4  5  1  0  0  0
  5  6  2  0  0  0
  5  7  1  0  0  0
  7  8  1  0  0  0
  8  9  1  0  0  0
  9 29  1  0  0  0
 29 30  1  0  0  0
 30 31  2  0  0  0
 31 32  1  0  0  0
 32 33  2  0  0  0
 33 34  1  0  0  0
 34 35  1  0  0  0
  9 10  1  0  0  0
 10 11  2  0  0  0
 10 12  1  0  0  0
 12 13  2  0  0  0
 13 14  1  0  0  0
 14 15  2  0  0  0
 15 16  1  0  0  0
 15 17  1  0  0  0
 17 18  2  0  0  0
  7  2  1  0  0  0
 34 30  1  0  0  0
 18 12  1  0  0  0
 28 19  1  0  0  0
 18  7  1  0  0  0
 28 23  1  0  0  0
M  END
> <minimizedAffinity>
-8.89596

> <CNNscore>
0.3006532788

> <CNNaffinity>
6.2005767822

> <CNN_VS>
1.8642237186

> <CNNaffinity_variance>
0.2600144148

$$$$



 35 40  0  0  0  0  0  0  0  0999 V2000
   -7.2512   -0.0194  -21.1360 C   0  0  0  0  0  0  0  0  0  0  0  0
   -8.4360   -0.1667  -22.0441 C   0  0  0  0  0  0  0  0  0  0  0  0
   -9.2260    1.1042  -22.1477 C   0  0  0  0  0  0  0  0  0  0  0  0
  -10.3819    0.8575  -23.0713 N   0  0  0  0  0  0  0  0  0  0  0  0
  -10.3063   -0.5659  -23.5385 C   0  0  0  0  0  0  0  0  0  0  0  0
  -11.2650   -1.2382  -24.4759 O   0  0  0  0  0  0  0  0  0  0  0  0
   -9.1037   -1.1989  -22.9036 C   0  0  0  0  0  0  0  0  0  0  0  0
   -9.8772   -2.1208  -23.7990 C   0  0  0  0  0  0  0  0  0  0  0  0
   -9.4222   -3.5373  -23.9901 N   0  0  0  0  0  0  0  0  0  0  0  0
   -8.1937   -4.0319  -23.2859 C   0  0  0  0  0  0  0  0  0  0  0  0
   -7.7387   -5.4484  -23.4770 O   0  0  0  0  0  0  0  0  0  0  0  0
   -7.4201   -3.1100  -22.3904 C   0  0  0  0  0  0  0  0  0  0  0  0
   -6.1916   -3.6046  -21.6861 C   0  0  0  0  0  0  0  0  0  0  0  0
   -5.4181   -2.6827  -20.7907 C   0  0  0  0  0  0  0  0  0  0  0  0
   -5.8731   -1.2663  -20.5996 C   0  0  0  0  0  0  0  0  0  0  0  0
   -5.0995   -0.3444  -19.7041 F   0  0  0  0  0  0  0  0  0  0  0  0
   -7.1016   -0.7716  -21.3039 C   0  0  0  0  0  0  0  0  0  0  0  0
   -7.8751   -1.6935  -22.1993 C   0  0  0  0  0  0  0  0  0  0  0  0
  -11.4294    1.8585  -23.4596 C   0  0  0  0  0  0  0  0  0  0  0  0
  -12.8160    1.7489  -22.8983 C   0  0  0  0  0  0  0  0  0  0  0  0
  -13.8635    2.7499  -23.2866 N   0  0  0  0  0  0  0  0  0  0  0  0
  -13.5244    3.8604  -24.2362 C   0  0  0  0  0  0  0  0  0  0  0  0
  -12.1376    3.9699  -24.7975 C   0  0  0  0  0  0  0  0  0  0  0  0
  -11.7985    5.0805  -25.7472 C   0  0  0  0  0  0  0  0  0  0  0  0
  -10.4117    5.1899  -26.3084 C   0  0  0  0  0  0  0  0  0  0  0  0
   -9.3643    4.1890  -25.9201 C   0  0  0  0  0  0  0  0  0  0  0  0
   -9.7035    3.0785  -24.9705 C   0  0  0  0  0  0  0  0  0  0  0  0
  -11.0901    2.9690  -24.4092 C   0  0  0  0  0  0  0  0  0  0  0  0
  -10.1958   -4.4592  -24.8856 C   0  0  0  0  0  0  0  0  0  0  0  0
   -9.4773   -5.2916  -25.9057 C   0  0  0  0  0  0  0  0  0  0  0  0
   -9.5885   -6.7788  -26.0669 N   0  0  0  0  0  0  0  0  0  0  0  0
   -8.7013   -7.1894  -27.2045 N   0  0  0  0  0  0  0  0  0  0  0  0
   -8.0417   -5.9560  -27.7464 C   0  0  0  0  0  0  0  0  0  0  0  0
   -8.5213   -4.7831  -26.9437 N   0  0  0  0  0  0  0  0  0  0  0  0
   -8.1159   -3.3529  -27.1438 C   0  0  0  0  0  0  0  0  0  0  0  0
  2  1  1  0  0  0
  2  3  1  0  0  0
  3  4  1  0  0  0
  4 19  1  0  0  0
 19 20  2  0  0  0
 20 21  1  0  0  0
 21 22  2  0  0  0
 22 23  1  0  0  0
 23 24  2  0  0  0
 24 25  1  0  0  0
 25 26  2  0  0  0
 26 27  1  0  0  0
 27 28  2  0  0  0
  4  5  1  0  0  0
  5  6  2  0  0  0
  5  7  1  0  0  0
  7  8  1  0  0  0
  8  9  1  0  0  0
  9 29  1  0  0  0
 29 30  1  0  0  0
 30 31  2  0  0  0
 31 32  1  0  0  0
 32 33  2  0  0  0
 33 34  1  0  0  0
 34 35  1  0  0  0
  9 10  1  0  0  0
 10 11  2  0  0  0
 10 12  1  0  0  0
 12 13  2  0  0  0
 13 14  1  0  0  0
 14 15  2  0  0  0
 15 16  1  0  0  0
 15 17  1  0  0  0
 17 18  2  0  0  0
  7  2  1  0  0  0
 34 30  1  0  0  0
 18 12  1  0  0  0
 28 19  1  0  0  0
 18  7  1  0  0  0
 28 23  1  0  0  0
M  END
> <minimizedAffinity>
-9.00931

> <CNNscore>
0.2871011496

> <CNNaffinity>
6.0287995338

> <CNN_VS>
1.7308752537

> <CNNaffinity_variance>
0.4976523519

$$$$



 35 40  0  0  0  0  0  0  0  0999 V2000
   -6.7252    1.8751  -21.8790 C   0  0  0  0  0  0  0  0  0  0  0  0
   -7.9847    1.4209  -22.5553 C   0  0  0  0  0  0  0  0  0  0  0  0
   -8.9044    2.5665  -22.8580 C   0  0  0  0  0  0  0  0  0  0  0  0
  -10.1272    2.0145  -23.5289 N   0  0  0  0  0  0  0  0  0  0  0  0
   -9.9632    0.5276  -23.6408 C   0  0  0  0  0  0  0  0  0  0  0  0
  -10.9500   -0.4250  -24.2478 O   0  0  0  0  0  0  0  0  0  0  0  0
   -8.6390    0.1608  -23.0390 C   0  0  0  0  0  0  0  0  0  0  0  0
   -9.4131   -1.0093  -23.5698 C   0  0  0  0  0  0  0  0  0  0  0  0
   -8.8433   -2.3932  -23.4694 N   0  0  0  0  0  0  0  0  0  0  0  0
   -7.4995   -2.6071  -22.8383 C   0  0  0  0  0  0  0  0  0  0  0  0
   -6.9298   -3.9911  -22.7379 O   0  0  0  0  0  0  0  0  0  0  0  0
   -6.7254   -1.4371  -22.3074 C   0  0  0  0  0  0  0  0  0  0  0  0
   -5.3816   -1.6510  -21.6763 C   0  0  0  0  0  0  0  0  0  0  0  0
   -4.6076   -0.4809  -21.1455 C   0  0  0  0  0  0  0  0  0  0  0  0
   -5.1773    0.9030  -21.2458 C   0  0  0  0  0  0  0  0  0  0  0  0
   -4.4032    2.0731  -20.7150 F   0  0  0  0  0  0  0  0  0  0  0  0
   -6.5211    1.1169  -21.8770 C   0  0  0  0  0  0  0  0  0  0  0  0
   -7.2952   -0.0531  -22.4078 C   0  0  0  0  0  0  0  0  0  0  0  0
  -11.3069    2.8096  -24.0045 C   0  0  0  0  0  0  0  0  0  0  0  0
  -12.6003    2.7587  -23.2467 C   0  0  0  0  0  0  0  0  0  0  0  0
  -13.7799    3.5538  -23.7222 N   0  0  0  0  0  0  0  0  0  0  0  0
  -13.6661    4.3998  -24.9556 C   0  0  0  0  0  0  0  0  0  0  0  0
  -12.3726    4.4507  -25.7134 C   0  0  0  0  0  0  0  0  0  0  0  0
  -12.2588    5.2968  -26.9469 C   0  0  0  0  0  0  0  0  0  0  0  0
  -10.9653    5.3476  -27.7047 C   0  0  0  0  0  0  0  0  0  0  0  0
   -9.7857    4.5525  -27.2291 C   0  0  0  0  0  0  0  0  0  0  0  0
   -9.8995    3.7065  -25.9957 C   0  0  0  0  0  0  0  0  0  0  0  0
  -11.1929    3.6556  -25.2379 C   0  0  0  0  0  0  0  0  0  0  0  0
   -9.6175   -3.5633  -24.0003 C   0  0  0  0  0  0  0  0  0  0  0  0
   -9.3806   -4.0463  -25.4005 C   0  0  0  0  0  0  0  0  0  0  0  0
   -9.7162   -3.3017  -26.6586 N   0  0  0  0  0  0  0  0  0  0  0  0
   -9.3095   -4.1538  -27.8241 N   0  0  0  0  0  0  0  0  0  0  0  0
   -8.7226   -5.4252  -27.2863 C   0  0  0  0  0  0  0  0  0  0  0  0
   -8.7665   -5.3587  -25.7884 N   0  0  0  0  0  0  0  0  0  0  0  0
   -8.2816   -6.4186  -24.8442 C   0  0  0  0  0  0  0  0  0  0  0  0
  2  1  1  0  0  0
  2  3  1  0  0  0
  3  4  1  0  0  0
  4 19  1  0  0  0
 19 20  2  0  0  0
 20 21  1  0  0  0
 21 22  2  0  0  0
 22 23  1  0  0  0
 23 24  2  0  0  0
 24 25  1  0  0  0
 25 26  2  0  0  0
 26 27  1  0  0  0
 27 28  2  0  0  0
  4  5  1  0  0  0
  5  6  2  0  0  0
  5  7  1  0  0  0
  7  8  1  0  0  0
  8  9  1  0  0  0
  9 29  1  0  0  0
 29 30  1  0  0  0
 30 31  2  0  0  0
 31 32  1  0  0  0
 32 33  2  0  0  0
 33 34  1  0  0  0
 34 35  1  0  0  0
  9 10  1  0  0  0
 10 11  2  0  0  0
 10 12  1  0  0  0
 12 13  2  0  0  0
 13 14  1  0  0  0
 14 15  2  0  0  0
 15 16  1  0  0  0
 15 17  1  0  0  0
 17 18  2  0  0  0
  7  2  1  0  0  0
 34 30  1  0  0  0
 18 12  1  0  0  0
 28 19  1  0  0  0
 18  7  1  0  0  0
 28 23  1  0  0  0
M  END
> <minimizedAffinity>
-8.15010

> <CNNscore>
0.2208915651

> <CNNaffinity>
6.0926103592

> <CNN_VS>
1.3458062410

> <CNNaffinity_variance>
0.1793868244

$$$$



 35 40  0  0  0  0  0  0  0  0999 V2000
  -11.5947   -2.0937  -23.1204 C   0  0  0  0  0  0  0  0  0  0  0  0
  -10.1119   -2.0726  -23.3461 C   0  0  0  0  0  0  0  0  0  0  0  0
   -9.4998   -3.4327  -23.1861 C   0  0  0  0  0  0  0  0  0  0  0  0
   -8.0249   -3.3088  -23.4296 N   0  0  0  0  0  0  0  0  0  0  0  0
   -7.7255   -1.8722  -23.7400 C   0  0  0  0  0  0  0  0  0  0  0  0
   -6.3735   -1.3000  -24.0480 O   0  0  0  0  0  0  0  0  0  0  0  0
   -9.0153   -1.1081  -23.6884 C   0  0  0  0  0  0  0  0  0  0  0  0
   -7.8201   -0.2657  -24.0229 C   0  0  0  0  0  0  0  0  0  0  0  0
   -7.9845    1.2046  -24.2702 N   0  0  0  0  0  0  0  0  0  0  0  0
   -9.3439    1.8325  -24.1830 C   0  0  0  0  0  0  0  0  0  0  0  0
   -9.5082    3.3028  -24.4303 O   0  0  0  0  0  0  0  0  0  0  0  0
  -10.5391    0.9901  -23.8484 C   0  0  0  0  0  0  0  0  0  0  0  0
  -11.8985    1.6179  -23.7612 C   0  0  0  0  0  0  0  0  0  0  0  0
  -13.0937    0.7755  -23.4267 C   0  0  0  0  0  0  0  0  0  0  0  0
  -12.9293   -0.6948  -23.1794 C   0  0  0  0  0  0  0  0  0  0  0  0
  -14.1245   -1.5373  -22.8449 F   0  0  0  0  0  0  0  0  0  0  0  0
  -11.5699   -1.3227  -23.2667 C   0  0  0  0  0  0  0  0  0  0  0  0
  -10.3748   -0.4803  -23.6012 C   0  0  0  0  0  0  0  0  0  0  0  0
   -7.0250   -4.4255  -23.3727 C   0  0  0  0  0  0  0  0  0  0  0  0
   -6.2894   -4.7091  -22.0967 C   0  0  0  0  0  0  0  0  0  0  0  0
   -5.2895   -5.8258  -22.0398 N   0  0  0  0  0  0  0  0  0  0  0  0
   -5.0253   -6.6588  -23.2589 C   0  0  0  0  0  0  0  0  0  0  0  0
   -5.7611   -6.3752  -24.5349 C   0  0  0  0  0  0  0  0  0  0  0  0
   -5.4969   -7.2083  -25.7541 C   0  0  0  0  0  0  0  0  0  0  0  0
   -6.2326   -6.9245  -27.0301 C   0  0  0  0  0  0  0  0  0  0  0  0
   -7.2325   -5.8079  -27.0870 C   0  0  0  0  0  0  0  0  0  0  0  0
   -7.4966   -4.9749  -25.8678 C   0  0  0  0  0  0  0  0  0  0  0  0
   -6.7610   -5.2585  -24.5919 C   0  0  0  0  0  0  0  0  0  0  0  0
   -6.7893    2.0471  -24.6047 C   0  0  0  0  0  0  0  0  0  0  0  0
   -5.6776    2.2005  -23.6095 C   0  0  0  0  0  0  0  0  0  0  0  0
   -4.3966    1.4202  -23.5912 N   0  0  0  0  0  0  0  0  0  0  0  0
   -3.5790    1.8986  -22.4282 N   0  0  0  0  0  0  0  0  0  0  0  0
   -4.3547    2.9746  -21.7277 C   0  0  0  0  0  0  0  0  0  0  0  0
   -5.6516    3.1611  -22.4577 N   0  0  0  0  0  0  0  0  0  0  0  0
   -6.7328    4.1370  -22.0990 C   0  0  0  0  0  0  0  0  0  0  0  0
  2  1  1  0  0  0
  2  3  1  0  0  0
  3  4  1  0  0  0
  4 19  1  0  0  0
 19 20  2  0  0  0
 20 21  1  0  0  0
 21 22  2  0  0  0
 22 23  1  0  0  0
 23 24  2  0  0  0
 24 25  1  0  0  0
 25 26  2  0  0  0
 26 27  1  0  0  0
 27 28  2  0  0  0
  4  5  1  0  0  0
  5  6  2  0  0  0
  5  7  1  0  0  0
  7  8  1  0  0  0
  8  9  1  0  0  0
  9 29  1  0  0  0
 29 30  1  0  0  0
 30 31  2  0  0  0
 31 32  1  0  0  0
 32 33  2  0  0  0
 33 34  1  0  0  0
 34 35  1  0  0  0
  9 10  1  0  0  0
 10 11  2  0  0  0
 10 12  1  0  0  0
 12 13  2  0  0  0
 13 14  1  0  0  0
 14 15  2  0  0  0
 15 16  1  0  0  0
 15 17  1  0  0  0
 17 18  2  0  0  0
  7  2  1  0  0  0
 34 30  1  0  0  0
 18 12  1  0  0  0
 28 19  1  0  0  0
 18  7  1  0  0  0
 28 23  1  0  0  0
M  END
> <minimizedAffinity>
-7.96945

> <CNNscore>
0.2131486386

> <CNNaffinity>
6.3303012848

> <CNN_VS>
1.3492951393

> <CNNaffinity_variance>
0.1810604632

$$$$



 35 40  0  0  0  0  0  0  0  0999 V2000
   -9.8380   -1.3162  -23.2472 C   0  0  0  0  0  0  0  0  0  0  0  0
   -9.2223    0.0445  -23.3881 C   0  0  0  0  0  0  0  0  0  0  0  0
   -7.7236   -0.0158  -23.4029 C   0  0  0  0  0  0  0  0  0  0  0  0
   -7.2048    1.3843  -23.5462 N   0  0  0  0  0  0  0  0  0  0  0  0
   -8.3829    2.3098  -23.6199 C   0  0  0  0  0  0  0  0  0  0  0  0
   -8.3243    3.8016  -23.7658 O   0  0  0  0  0  0  0  0  0  0  0  0
   -9.6298    1.4818  -23.5222 C   0  0  0  0  0  0  0  0  0  0  0  0
   -9.8842    2.9534  -23.6617 C   0  0  0  0  0  0  0  0  0  0  0  0
  -11.2914    3.4717  -23.6926 N   0  0  0  0  0  0  0  0  0  0  0  0
  -12.4444    2.5184  -23.5840 C   0  0  0  0  0  0  0  0  0  0  0  0
  -13.8516    3.0367  -23.6149 O   0  0  0  0  0  0  0  0  0  0  0  0
  -12.1901    1.0466  -23.4444 C   0  0  0  0  0  0  0  0  0  0  0  0
  -13.3430    0.0933  -23.3358 C   0  0  0  0  0  0  0  0  0  0  0  0
  -13.0886   -1.3783  -23.1962 C   0  0  0  0  0  0  0  0  0  0  0  0
  -11.6813   -1.8966  -23.1653 C   0  0  0  0  0  0  0  0  0  0  0  0
  -11.4270   -3.3684  -23.0257 F   0  0  0  0  0  0  0  0  0  0  0  0
  -10.5284   -0.9433  -23.2739 C   0  0  0  0  0  0  0  0  0  0  0  0
  -10.7828    0.5284  -23.4135 C   0  0  0  0  0  0  0  0  0  0  0  0
   -5.7614    1.7879  -23.6055 C   0  0  0  0  0  0  0  0  0  0  0  0
   -5.1813    2.3127  -24.8853 C   0  0  0  0  0  0  0  0  0  0  0  0
   -3.7379    2.7164  -24.9445 N   0  0  0  0  0  0  0  0  0  0  0  0
   -2.8746    2.5953  -23.7239 C   0  0  0  0  0  0  0  0  0  0  0  0
   -3.4547    2.0705  -22.4440 C   0  0  0  0  0  0  0  0  0  0  0  0
   -2.5913    1.9494  -21.2233 C   0  0  0  0  0  0  0  0  0  0  0  0
   -3.1715    1.4246  -19.9434 C   0  0  0  0  0  0  0  0  0  0  0  0
   -4.6149    1.0210  -19.8843 C   0  0  0  0  0  0  0  0  0  0  0  0
   -5.4782    1.1421  -21.1049 C   0  0  0  0  0  0  0  0  0  0  0  0
   -4.8981    1.6668  -22.3847 C   0  0  0  0  0  0  0  0  0  0  0  0
  -11.5458    4.9435  -23.8322 C   0  0  0  0  0  0  0  0  0  0  0  0
  -12.0495    5.4976  -25.1318 C   0  0  0  0  0  0  0  0  0  0  0  0
  -13.4754    5.8353  -25.4527 N   0  0  0  0  0  0  0  0  0  0  0  0
  -13.5230    6.3577  -26.8580 N   0  0  0  0  0  0  0  0  0  0  0  0
  -12.1266    6.3429  -27.4056 C   0  0  0  0  0  0  0  0  0  0  0  0
  -11.2160    5.8113  -26.3387 N   0  0  0  0  0  0  0  0  0  0  0  0
   -9.7322    5.6260  -26.4579 C   0  0  0  0  0  0  0  0  0  0  0  0
  2  1  1  0  0  0
  2  3  1  0  0  0
  3  4  1  0  0  0
  4 19  1  0  0  0
 19 20  2  0  0  0
 20 21  1  0  0  0
 21 22  2  0  0  0
 22 23  1  0  0  0
 23 24  2  0  0  0
 24 25  1  0  0  0
 25 26  2  0  0  0
 26 27  1  0  0  0
 27 28  2  0  0  0
  4  5  1  0  0  0
  5  6  2  0  0  0
  5  7  1  0  0  0
  7  8  1  0  0  0
  8  9  1  0  0  0
  9 29  1  0  0  0
 29 30  1  0  0  0
 30 31  2  0  0  0
 31 32  1  0  0  0
 32 33  2  0  0  0
 33 34  1  0  0  0
 34 35  1  0  0  0
  9 10  1  0  0  0
 10 11  2  0  0  0
 10 12  1  0  0  0
 12 13  2  0  0  0
 13 14  1  0  0  0
 14 15  2  0  0  0
 15 16  1  0  0  0
 15 17  1  0  0  0
 17 18  2  0  0  0
  7  2  1  0  0  0
 34 30  1  0  0  0
 18 12  1  0  0  0
 28 19  1  0  0  0
 18  7  1  0  0  0
 28 23  1  0  0  0
M  END
> <minimizedAffinity>
-7.78039

> <CNNscore>
0.1964033693

> <CNNaffinity>
6.0529980659

> <CNN_VS>
1.1888291836

> <CNNaffinity_variance>
0.1025350466

$$$$
