


 35 40  0  0  0  0  0  0  0  0999 V2000
    7.3955   -3.3689   23.3130 C   0  0  0  0  0  0  0  0  0  0  0  0
    7.5618   -2.0583   22.6025 C   0  0  0  0  0  0  0  0  0  0  0  0
    6.4618   -1.8122   21.6128 C   0  0  0  0  0  0  0  0  0  0  0  0
    6.7152   -0.4864   20.9584 N   0  0  0  0  0  0  0  0  0  0  0  0
    7.9718    0.0867   21.5437 C   0  0  0  0  0  0  0  0  0  0  0  0
    8.5955    1.4007   21.1771 O   0  0  0  0  0  0  0  0  0  0  0  0
    8.4950   -0.8847   22.5597 C   0  0  0  0  0  0  0  0  0  0  0  0
    9.3339    0.3493   22.4070 C   0  0  0  0  0  0  0  0  0  0  0  0
   10.5729    0.5212   23.2349 N   0  0  0  0  0  0  0  0  0  0  0  0
   10.9729   -0.5409   24.2156 C   0  0  0  0  0  0  0  0  0  0  0  0
   12.2119   -0.3690   25.0435 O   0  0  0  0  0  0  0  0  0  0  0  0
   10.1340   -1.7751   24.3684 C   0  0  0  0  0  0  0  0  0  0  0  0
   10.5341   -2.8372   25.3490 C   0  0  0  0  0  0  0  0  0  0  0  0
    9.6952   -4.0712   25.5018 C   0  0  0  0  0  0  0  0  0  0  0  0
    8.4563   -4.2431   24.6739 C   0  0  0  0  0  0  0  0  0  0  0  0
    7.6174   -5.4773   24.8266 F   0  0  0  0  0  0  0  0  0  0  0  0
    8.0562   -3.1810   23.6932 C   0  0  0  0  0  0  0  0  0  0  0  0
    8.8951   -1.9470   23.5404 C   0  0  0  0  0  0  0  0  0  0  0  0
    5.8618    0.1538   19.9040 C   0  0  0  0  0  0  0  0  0  0  0  0
    6.2542    0.0552   18.4597 C   0  0  0  0  0  0  0  0  0  0  0  0
    5.4008    0.6954   17.4052 N   0  0  0  0  0  0  0  0  0  0  0  0
    4.1550    1.4342   17.7952 C   0  0  0  0  0  0  0  0  0  0  0  0
    3.7625    1.5327   19.2396 C   0  0  0  0  0  0  0  0  0  0  0  0
    2.5166    2.2715   19.6295 C   0  0  0  0  0  0  0  0  0  0  0  0
    2.1242    2.3700   21.0740 C   0  0  0  0  0  0  0  0  0  0  0  0
    2.9776    1.7298   22.1283 C   0  0  0  0  0  0  0  0  0  0  0  0
    4.2235    0.9911   21.7384 C   0  0  0  0  0  0  0  0  0  0  0  0
    4.6159    0.8925   20.2941 C   0  0  0  0  0  0  0  0  0  0  0  0
   11.4118    1.7553   23.0821 C   0  0  0  0  0  0  0  0  0  0  0  0
   10.7595    3.1055   23.0440 C   0  0  0  0  0  0  0  0  0  0  0  0
    9.3516    3.4166   23.4576 N   0  0  0  0  0  0  0  0  0  0  0  0
    9.1227    4.8851   23.2548 C   0  0  0  0  0  0  0  0  0  0  0  0
   10.3891    5.4816   22.7159 C   0  0  0  0  0  0  0  0  0  0  0  0
   11.4007    4.3818   22.5856 N   0  0  0  0  0  0  0  0  0  0  0  0
   12.8067    4.5318   22.0849 C   0  0  0  0  0  0  0  0  0  0  0  0
  2  1  1  0  0  0
  2  3  1  0  0  0
  3  4  1  0  0  0
  4 19  1  0  0  0
 19 20  2  0  0  0
 20 21  1  0  0  0
 21 22  2  0  0  0
 22 23  1  0  0  0
 23 24  2  0  0  0
 24 25  1  0  0  0
 25 26  2  0  0  0
 26 27  1  0  0  0
 27 28  2  0  0  0
  4  5  1  0  0  0
  5  6  2  0  0  0
  5  7  1  0  0  0
  7  8  1  0  0  0
  8  9  1  0  0  0
  9 29  1  0  0  0
 29 30  1  0  0  0
 30 31  2  0  0  0
 31 32  1  0  0  0
 32 33  2  0  0  0
 33 34  1  0  0  0
 34 35  1  0  0  0
  9 10  1  0  0  0
 10 11  2  0  0  0
 10 12  1  0  0  0
 12 13  2  0  0  0
 13 14  1  0  0  0
 14 15  2  0  0  0
 15 16  1  0  0  0
 15 17  1  0  0  0
 17 18  2  0  0  0
  7  2  1  0  0  0
 34 30  1  0  0  0
 18 12  1  0  0  0
 28 19  1  0  0  0
 18  7  1  0  0  0
 28 23  1  0  0  0
M  END
> <minimizedAffinity>
-9.04187

> <CNNscore>
0.5771524906

> <CNNaffinity>
6.9404706955

> <CNN_VS>
4.0057101250

> <CNNaffinity_variance>
0.0421629399

$$$$



 35 40  0  0  0  0  0  0  0  0999 V2000
    9.0640   -0.9427   23.7526 C   0  0  0  0  0  0  0  0  0  0  0  0
    7.9166   -1.3479   22.8755 C   0  0  0  0  0  0  0  0  0  0  0  0
    7.4977   -0.2427   21.9519 C   0  0  0  0  0  0  0  0  0  0  0  0
    6.3522   -0.7416   21.1218 N   0  0  0  0  0  0  0  0  0  0  0  0
    6.0632   -2.1550   21.5324 C   0  0  0  0  0  0  0  0  0  0  0  0
    4.9949   -3.0386   20.9596 O   0  0  0  0  0  0  0  0  0  0  0  0
    7.0300   -2.5298   22.6163 C   0  0  0  0  0  0  0  0  0  0  0  0
    6.0722   -3.6238   22.2481 C   0  0  0  0  0  0  0  0  0  0  0  0
    6.1405   -4.9480   22.9495 N   0  0  0  0  0  0  0  0  0  0  0  0
    7.1666   -5.1781   24.0191 C   0  0  0  0  0  0  0  0  0  0  0  0
    7.2348   -6.5022   24.7206 O   0  0  0  0  0  0  0  0  0  0  0  0
    8.1245   -4.0840   24.3874 C   0  0  0  0  0  0  0  0  0  0  0  0
    9.1506   -4.3141   25.4570 C   0  0  0  0  0  0  0  0  0  0  0  0
   10.1084   -3.2201   25.8252 C   0  0  0  0  0  0  0  0  0  0  0  0
   10.0401   -1.8959   25.1237 C   0  0  0  0  0  0  0  0  0  0  0  0
   10.9980   -0.8019   25.4919 F   0  0  0  0  0  0  0  0  0  0  0  0
    9.0140   -1.6658   24.0541 C   0  0  0  0  0  0  0  0  0  0  0  0
    8.0562   -2.7599   23.6859 C   0  0  0  0  0  0  0  0  0  0  0  0
    5.6237    0.0365   20.0664 C   0  0  0  0  0  0  0  0  0  0  0  0
    6.0660   -0.0446   18.6354 C   0  0  0  0  0  0  0  0  0  0  0  0
    5.3375    0.7335   17.5800 N   0  0  0  0  0  0  0  0  0  0  0  0
    4.1666    1.5925   17.9556 C   0  0  0  0  0  0  0  0  0  0  0  0
    3.7243    1.6735   19.3866 C   0  0  0  0  0  0  0  0  0  0  0  0
    2.5533    2.5326   19.7622 C   0  0  0  0  0  0  0  0  0  0  0  0
    2.1111    2.6136   21.1933 C   0  0  0  0  0  0  0  0  0  0  0  0
    2.8396    1.8356   22.2486 C   0  0  0  0  0  0  0  0  0  0  0  0
    4.0105    0.9765   21.8730 C   0  0  0  0  0  0  0  0  0  0  0  0
    4.4528    0.8955   20.4421 C   0  0  0  0  0  0  0  0  0  0  0  0
    5.1826   -6.0420   22.5813 C   0  0  0  0  0  0  0  0  0  0  0  0
    3.8935   -6.1946   23.3329 C   0  0  0  0  0  0  0  0  0  0  0  0
    2.7119   -7.0112   22.9002 N   0  0  0  0  0  0  0  0  0  0  0  0
    1.6478   -6.8787   23.9490 C   0  0  0  0  0  0  0  0  0  0  0  0
    2.1717   -5.9802   25.0299 C   0  0  0  0  0  0  0  0  0  0  0  0
    3.5595   -5.5575   24.6491 N   0  0  0  0  0  0  0  0  0  0  0  0
    4.4561   -4.6558   25.4448 C   0  0  0  0  0  0  0  0  0  0  0  0
  2  1  1  0  0  0
  2  3  1  0  0  0
  3  4  1  0  0  0
  4 19  1  0  0  0
 19 20  2  0  0  0
 20 21  1  0  0  0
 21 22  2  0  0  0
 22 23  1  0  0  0
 23 24  2  0  0  0
 24 25  1  0  0  0
 25 26  2  0  0  0
 26 27  1  0  0  0
 27 28  2  0  0  0
  4  5  1  0  0  0
  5  6  2  0  0  0
  5  7  1  0  0  0
  7  8  1  0  0  0
  8  9  1  0  0  0
  9 29  1  0  0  0
 29 30  1  0  0  0
 30 31  2  0  0  0
 31 32  1  0  0  0
 32 33  2  0  0  0
 33 34  1  0  0  0
 34 35  1  0  0  0
  9 10  1  0  0  0
 10 11  2  0  0  0
 10 12  1  0  0  0
 12 13  2  0  0  0
 13 14  1  0  0  0
 14 15  2  0  0  0
 15 16  1  0  0  0
 15 17  1  0  0  0
 17 18  2  0  0  0
  7  2  1  0  0  0
 34 30  1  0  0  0
 18 12  1  0  0  0
 28 19  1  0  0  0
 18  7  1  0  0  0
 28 23  1  0  0  0
M  END
> <minimizedAffinity>
-8.32986

> <CNNscore>
0.5239385962

> <CNNaffinity>
6.5980539322

> <CNN_VS>
3.4569752216

> <CNNaffinity_variance>
0.0363007449

$$$$



 35 40  0  0  0  0  0  0  0  0999 V2000
   11.0184    0.0900   22.5263 C   0  0  0  0  0  0  0  0  0  0  0  0
    9.6369   -0.4441   22.2893 C   0  0  0  0  0  0  0  0  0  0  0  0
    8.9151    0.3197   21.2190 C   0  0  0  0  0  0  0  0  0  0  0  0
    7.5524   -0.2856   21.0564 N   0  0  0  0  0  0  0  0  0  0  0  0
    7.4319   -1.4235   22.0262 C   0  0  0  0  0  0  0  0  0  0  0  0
    6.2335   -2.3081   22.2030 O   0  0  0  0  0  0  0  0  0  0  0  0
    8.7202   -1.5215   22.7882 C   0  0  0  0  0  0  0  0  0  0  0  0
    7.6981   -2.5456   23.1837 C   0  0  0  0  0  0  0  0  0  0  0  0
    8.0142   -3.5454   24.2563 N   0  0  0  0  0  0  0  0  0  0  0  0
    9.3524   -3.5212   24.9334 C   0  0  0  0  0  0  0  0  0  0  0  0
    9.6685   -4.5210   26.0060 O   0  0  0  0  0  0  0  0  0  0  0  0
   10.3746   -2.4970   24.5379 C   0  0  0  0  0  0  0  0  0  0  0  0
   11.7128   -2.4727   25.2150 C   0  0  0  0  0  0  0  0  0  0  0  0
   12.7349   -1.4486   24.8196 C   0  0  0  0  0  0  0  0  0  0  0  0
   12.4188   -0.4488   23.7470 C   0  0  0  0  0  0  0  0  0  0  0  0
   13.4410    0.5753   23.3515 F   0  0  0  0  0  0  0  0  0  0  0  0
   11.0806   -0.4731   23.0699 C   0  0  0  0  0  0  0  0  0  0  0  0
   10.0585   -1.4972   23.4653 C   0  0  0  0  0  0  0  0  0  0  0  0
    6.4956    0.1675   20.0931 C   0  0  0  0  0  0  0  0  0  0  0  0
    6.4193   -0.4393   18.7235 C   0  0  0  0  0  0  0  0  0  0  0  0
    5.3626    0.0138   17.7602 N   0  0  0  0  0  0  0  0  0  0  0  0
    4.3820    1.0737   18.1666 C   0  0  0  0  0  0  0  0  0  0  0  0
    4.4583    1.6805   19.5362 C   0  0  0  0  0  0  0  0  0  0  0  0
    3.4777    2.7405   19.9426 C   0  0  0  0  0  0  0  0  0  0  0  0
    3.5540    3.3472   21.3123 C   0  0  0  0  0  0  0  0  0  0  0  0
    4.6108    2.8941   22.2755 C   0  0  0  0  0  0  0  0  0  0  0  0
    5.5913    1.8342   21.8691 C   0  0  0  0  0  0  0  0  0  0  0  0
    5.5151    1.2274   20.4995 C   0  0  0  0  0  0  0  0  0  0  0  0
    6.9920   -4.5696   24.6517 C   0  0  0  0  0  0  0  0  0  0  0  0
    6.1990   -5.2836   23.5976 C   0  0  0  0  0  0  0  0  0  0  0  0
    6.6950   -5.6807   22.2388 N   0  0  0  0  0  0  0  0  0  0  0  0
    5.5734   -6.3685   21.5186 C   0  0  0  0  0  0  0  0  0  0  0  0
    4.3840   -6.3965   22.4323 C   0  0  0  0  0  0  0  0  0  0  0  0
    4.7707   -5.7260   23.7172 N   0  0  0  0  0  0  0  0  0  0  0  0
    3.8847   -5.5320   24.9118 C   0  0  0  0  0  0  0  0  0  0  0  0
  2  1  1  0  0  0
  2  3  1  0  0  0
  3  4  1  0  0  0
  4 19  1  0  0  0
 19 20  2  0  0  0
 20 21  1  0  0  0
 21 22  2  0  0  0
 22 23  1  0  0  0
 23 24  2  0  0  0
 24 25  1  0  0  0
 25 26  2  0  0  0
 26 27  1  0  0  0
 27 28  2  0  0  0
  4  5  1  0  0  0
  5  6  2  0  0  0
  5  7  1  0  0  0
  7  8  1  0  0  0
  8  9  1  0  0  0
  9 29  1  0  0  0
 29 30  1  0  0  0
 30 31  2  0  0  0
 31 32  1  0  0  0
 32 33  2  0  0  0
 33 34  1  0  0  0
 34 35  1  0  0  0
  9 10  1  0  0  0
 10 11  2  0  0  0
 10 12  1  0  0  0
 12 13  2  0  0  0
 13 14  1  0  0  0
 14 15  2  0  0  0
 15 16  1  0  0  0
 15 17  1  0  0  0
 17 18  2  0  0  0
  7  2  1  0  0  0
 34 30  1  0  0  0
 18 12  1  0  0  0
 28 19  1  0  0  0
 18  7  1  0  0  0
 28 23  1  0  0  0
M  END
> <minimizedAffinity>
-9.31756

> <CNNscore>
0.4048092961

> <CNNaffinity>
6.7903480530

> <CNN_VS>
2.7487959862

> <CNNaffinity_variance>
0.0765873566

$$$$



 35 40  0  0  0  0  0  0  0  0999 V2000
   10.9953   -3.4004   26.1496 C   0  0  0  0  0  0  0  0  0  0  0  0
    9.6186   -2.8889   25.8444 C   0  0  0  0  0  0  0  0  0  0  0  0
    8.5507   -3.7993   26.3742 C   0  0  0  0  0  0  0  0  0  0  0  0
    7.2189   -3.2061   26.0214 N   0  0  0  0  0  0  0  0  0  0  0  0
    7.4637   -1.9292   25.2734 C   0  0  0  0  0  0  0  0  0  0  0  0
    6.4104   -1.0097   24.7302 O   0  0  0  0  0  0  0  0  0  0  0  0
    8.9468   -1.7331   25.1640 C   0  0  0  0  0  0  0  0  0  0  0  0
    8.1386   -0.6444   24.5225 C   0  0  0  0  0  0  0  0  0  0  0  0
    8.8288    0.5055   23.8508 N   0  0  0  0  0  0  0  0  0  0  0  0
   10.3272    0.5668   23.8205 C   0  0  0  0  0  0  0  0  0  0  0  0
   11.0173    1.7168   23.1487 O   0  0  0  0  0  0  0  0  0  0  0  0
   11.1355   -0.5219   24.4620 C   0  0  0  0  0  0  0  0  0  0  0  0
   12.6339   -0.4606   24.4317 C   0  0  0  0  0  0  0  0  0  0  0  0
   13.4422   -1.5492   25.0732 C   0  0  0  0  0  0  0  0  0  0  0  0
   12.7520   -2.6992   25.7449 C   0  0  0  0  0  0  0  0  0  0  0  0
   13.5603   -3.7878   26.3864 F   0  0  0  0  0  0  0  0  0  0  0  0
   11.2536   -2.7605   25.7752 C   0  0  0  0  0  0  0  0  0  0  0  0
   10.4453   -1.6718   25.1337 C   0  0  0  0  0  0  0  0  0  0  0  0
    5.8777   -3.7878   26.3574 C   0  0  0  0  0  0  0  0  0  0  0  0
    5.1145   -4.5600   25.3225 C   0  0  0  0  0  0  0  0  0  0  0  0
    3.7734   -5.1417   25.6586 N   0  0  0  0  0  0  0  0  0  0  0  0
    3.1954   -4.9510   27.0296 C   0  0  0  0  0  0  0  0  0  0  0  0
    3.9587   -4.1787   28.0645 C   0  0  0  0  0  0  0  0  0  0  0  0
    3.3807   -3.9881   29.4356 C   0  0  0  0  0  0  0  0  0  0  0  0
    4.1440   -3.2158   30.4704 C   0  0  0  0  0  0  0  0  0  0  0  0
    5.4851   -2.6342   30.1343 C   0  0  0  0  0  0  0  0  0  0  0  0
    6.0630   -2.8249   28.7633 C   0  0  0  0  0  0  0  0  0  0  0  0
    5.2998   -3.5971   27.7285 C   0  0  0  0  0  0  0  0  0  0  0  0
    8.0204    1.5942   23.2092 C   0  0  0  0  0  0  0  0  0  0  0  0
    7.1534    1.2858   22.0247 C   0  0  0  0  0  0  0  0  0  0  0  0
    5.9093    2.0234   21.6269 N   0  0  0  0  0  0  0  0  0  0  0  0
    5.3652    1.3792   20.3864 C   0  0  0  0  0  0  0  0  0  0  0  0
    6.2731    0.2435   20.0175 C   0  0  0  0  0  0  0  0  0  0  0  0
    7.3782    0.1858   21.0301 N   0  0  0  0  0  0  0  0  0  0  0  0
    8.5095   -0.7990   21.0453 C   0  0  0  0  0  0  0  0  0  0  0  0
  2  1  1  0  0  0
  2  3  1  0  0  0
  3  4  1  0  0  0
  4 19  1  0  0  0
 19 20  2  0  0  0
 20 21  1  0  0  0
 21 22  2  0  0  0
 22 23  1  0  0  0
 23 24  2  0  0  0
 24 25  1  0  0  0
 25 26  2  0  0  0
 26 27  1  0  0  0
 27 28  2  0  0  0
  4  5  1  0  0  0
  5  6  2  0  0  0
  5  7  1  0  0  0
  7  8  1  0  0  0
  8  9  1  0  0  0
  9 29  1  0  0  0
 29 30  1  0  0  0
 30 31  2  0  0  0
 31 32  1  0  0  0
 32 33  2  0  0  0
 33 34  1  0  0  0
 34 35  1  0  0  0
  9 10  1  0  0  0
 10 11  2  0  0  0
 10 12  1  0  0  0
 12 13  2  0  0  0
 13 14  1  0  0  0
 14 15  2  0  0  0
 15 16  1  0  0  0
 15 17  1  0  0  0
 17 18  2  0  0  0
  7  2  1  0  0  0
 34 30  1  0  0  0
 18 12  1  0  0  0
 28 19  1  0  0  0
 18  7  1  0  0  0
 28 23  1  0  0  0
M  END
> <minimizedAffinity>
-8.25762

> <CNNscore>
0.3118159175

> <CNNaffinity>
6.5012345314

> <CNN_VS>
2.0271883011

> <CNNaffinity_variance>
0.1316339672

$$$$



 35 40  0  0  0  0  0  0  0  0999 V2000
   10.6412    0.0356   22.8115 C   0  0  0  0  0  0  0  0  0  0  0  0
    9.2053   -0.3321   22.5806 C   0  0  0  0  0  0  0  0  0  0  0  0
    8.6634    0.2814   21.3237 C   0  0  0  0  0  0  0  0  0  0  0  0
    7.2314   -0.1418   21.1814 N   0  0  0  0  0  0  0  0  0  0  0  0
    6.8884   -1.0169   22.3504 C   0  0  0  0  0  0  0  0  0  0  0  0
    5.5587   -1.6612   22.6091 O   0  0  0  0  0  0  0  0  0  0  0  0
    8.1083   -1.1345   23.2152 C   0  0  0  0  0  0  0  0  0  0  0  0
    6.9205   -1.8923   23.7297 C   0  0  0  0  0  0  0  0  0  0  0  0
    7.0250   -2.6748   25.0051 N   0  0  0  0  0  0  0  0  0  0  0  0
    8.3174   -2.6996   25.7660 C   0  0  0  0  0  0  0  0  0  0  0  0
    8.4219   -3.4822   27.0414 O   0  0  0  0  0  0  0  0  0  0  0  0
    9.5053   -1.9418   25.2515 C   0  0  0  0  0  0  0  0  0  0  0  0
   10.7977   -1.9666   26.0125 C   0  0  0  0  0  0  0  0  0  0  0  0
   11.9856   -1.2088   25.4980 C   0  0  0  0  0  0  0  0  0  0  0  0
   11.8810   -0.4262   24.2226 C   0  0  0  0  0  0  0  0  0  0  0  0
   13.0690    0.3316   23.7082 F   0  0  0  0  0  0  0  0  0  0  0  0
   10.5886   -0.4014   23.4617 C   0  0  0  0  0  0  0  0  0  0  0  0
    9.4008   -1.1592   23.9761 C   0  0  0  0  0  0  0  0  0  0  0  0
    6.3051    0.2425   20.0659 C   0  0  0  0  0  0  0  0  0  0  0  0
    6.4384   -0.4098   18.7219 C   0  0  0  0  0  0  0  0  0  0  0  0
    5.5121   -0.0255   17.6065 N   0  0  0  0  0  0  0  0  0  0  0  0
    4.4525    1.0113   17.8351 C   0  0  0  0  0  0  0  0  0  0  0  0
    4.3192    1.6637   19.1792 C   0  0  0  0  0  0  0  0  0  0  0  0
    3.2594    2.7005   19.4079 C   0  0  0  0  0  0  0  0  0  0  0  0
    3.1262    3.3528   20.7520 C   0  0  0  0  0  0  0  0  0  0  0  0
    4.0525    2.9684   21.8674 C   0  0  0  0  0  0  0  0  0  0  0  0
    5.1121    1.9317   21.6387 C   0  0  0  0  0  0  0  0  0  0  0  0
    5.2455    1.2793   20.2947 C   0  0  0  0  0  0  0  0  0  0  0  0
    5.8371   -3.4327   25.5195 C   0  0  0  0  0  0  0  0  0  0  0  0
    5.7049   -4.9003   25.2392 C   0  0  0  0  0  0  0  0  0  0  0  0
    6.6685   -5.7378   24.4518 N   0  0  0  0  0  0  0  0  0  0  0  0
    6.1450   -7.1432   24.4230 C   0  0  0  0  0  0  0  0  0  0  0  0
    4.8578   -7.1742   25.1926 C   0  0  0  0  0  0  0  0  0  0  0  0
    4.5858   -5.7880   25.6970 N   0  0  0  0  0  0  0  0  0  0  0  0
    3.4025   -5.3640   26.5155 C   0  0  0  0  0  0  0  0  0  0  0  0
  2  1  1  0  0  0
  2  3  1  0  0  0
  3  4  1  0  0  0
  4 19  1  0  0  0
 19 20  2  0  0  0
 20 21  1  0  0  0
 21 22  2  0  0  0
 22 23  1  0  0  0
 23 24  2  0  0  0
 24 25  1  0  0  0
 25 26  2  0  0  0
 26 27  1  0  0  0
 27 28  2  0  0  0
  4  5  1  0  0  0
  5  6  2  0  0  0
  5  7  1  0  0  0
  7  8  1  0  0  0
  8  9  1  0  0  0
  9 29  1  0  0  0
 29 30  1  0  0  0
 30 31  2  0  0  0
 31 32  1  0  0  0
 32 33  2  0  0  0
 33 34  1  0  0  0
 34 35  1  0  0  0
  9 10  1  0  0  0
 10 11  2  0  0  0
 10 12  1  0  0  0
 12 13  2  0  0  0
 13 14  1  0  0  0
 14 15  2  0  0  0
 15 16  1  0  0  0
 15 17  1  0  0  0
 17 18  2  0  0  0
  7  2  1  0  0  0
 34 30  1  0  0  0
 18 12  1  0  0  0
 28 19  1  0  0  0
 18  7  1  0  0  0
 28 23  1  0  0  0
M  END
> <minimizedAffinity>
-9.62004

> <CNNscore>
0.2883388996

> <CNNaffinity>
6.5583672523

> <CNN_VS>
1.8910323381

> <CNNaffinity_variance>
0.0883595869

$$$$



 35 40  0  0  0  0  0  0  0  0999 V2000
    6.2410    0.0761   19.5036 C   0  0  0  0  0  0  0  0  0  0  0  0
    6.2914   -0.2312   20.9710 C   0  0  0  0  0  0  0  0  0  0  0  0
    7.4978   -1.0457   21.3334 C   0  0  0  0  0  0  0  0  0  0  0  0
    7.4588   -1.2996   22.8112 N   0  0  0  0  0  0  0  0  0  0  0  0
    6.2283   -0.6419   23.3622 C   0  0  0  0  0  0  0  0  0  0  0  0
    5.7954   -0.6442   24.7984 O   0  0  0  0  0  0  0  0  0  0  0  0
    5.5069    0.0184   22.2249 C   0  0  0  0  0  0  0  0  0  0  0  0
    4.8326    0.1856   23.5543 C   0  0  0  0  0  0  0  0  0  0  0  0
    3.5515    0.9596   23.6534 N   0  0  0  0  0  0  0  0  0  0  0  0
    2.9448    1.5664   22.4232 C   0  0  0  0  0  0  0  0  0  0  0  0
    1.6637    2.3404   22.5223 O   0  0  0  0  0  0  0  0  0  0  0  0
    3.6191    1.3993   21.0937 C   0  0  0  0  0  0  0  0  0  0  0  0
    3.0123    2.0061   19.8634 C   0  0  0  0  0  0  0  0  0  0  0  0
    3.6866    1.8389   18.5340 C   0  0  0  0  0  0  0  0  0  0  0  0
    4.9677    1.0650   18.4349 C   0  0  0  0  0  0  0  0  0  0  0  0
    5.6420    0.8978   17.1054 F   0  0  0  0  0  0  0  0  0  0  0  0
    5.5744    0.4581   19.6651 C   0  0  0  0  0  0  0  0  0  0  0  0
    4.9001    0.6253   20.9945 C   0  0  0  0  0  0  0  0  0  0  0  0
    8.4722   -2.0749   23.5997 C   0  0  0  0  0  0  0  0  0  0  0  0
    8.1057   -3.4039   24.1907 C   0  0  0  0  0  0  0  0  0  0  0  0
    9.1191   -4.1793   24.9792 N   0  0  0  0  0  0  0  0  0  0  0  0
   10.4991   -3.6256   25.1766 C   0  0  0  0  0  0  0  0  0  0  0  0
   10.8657   -2.2966   24.5856 C   0  0  0  0  0  0  0  0  0  0  0  0
   12.2458   -1.7429   24.7830 C   0  0  0  0  0  0  0  0  0  0  0  0
   12.6122   -0.4138   24.1919 C   0  0  0  0  0  0  0  0  0  0  0  0
   11.5988    0.3614   23.4035 C   0  0  0  0  0  0  0  0  0  0  0  0
   10.2188   -0.1922   23.2061 C   0  0  0  0  0  0  0  0  0  0  0  0
    9.8522   -1.5212   23.7971 C   0  0  0  0  0  0  0  0  0  0  0  0
    2.8772    1.1267   24.9829 C   0  0  0  0  0  0  0  0  0  0  0  0
    1.7875    0.1820   25.3952 C   0  0  0  0  0  0  0  0  0  0  0  0
    0.3665    0.2120   24.9159 N   0  0  0  0  0  0  0  0  0  0  0  0
   -0.3718   -0.9101   25.5836 C   0  0  0  0  0  0  0  0  0  0  0  0
    0.5931   -1.6336   26.4757 C   0  0  0  0  0  0  0  0  0  0  0  0
    1.9275   -0.9586   26.3593 N   0  0  0  0  0  0  0  0  0  0  0  0
    3.1818   -1.3547   27.0803 C   0  0  0  0  0  0  0  0  0  0  0  0
  2  1  1  0  0  0
  2  3  1  0  0  0
  3  4  1  0  0  0
  4 19  1  0  0  0
 19 20  2  0  0  0
 20 21  1  0  0  0
 21 22  2  0  0  0
 22 23  1  0  0  0
 23 24  2  0  0  0
 24 25  1  0  0  0
 25 26  2  0  0  0
 26 27  1  0  0  0
 27 28  2  0  0  0
  4  5  1  0  0  0
  5  6  2  0  0  0
  5  7  1  0  0  0
  7  8  1  0  0  0
  8  9  1  0  0  0
  9 29  1  0  0  0
 29 30  1  0  0  0
 30 31  2  0  0  0
 31 32  1  0  0  0
 32 33  2  0  0  0
 33 34  1  0  0  0
 34 35  1  0  0  0
  9 10  1  0  0  0
 10 11  2  0  0  0
 10 12  1  0  0  0
 12 13  2  0  0  0
 13 14  1  0  0  0
 14 15  2  0  0  0
 15 16  1  0  0  0
 15 17  1  0  0  0
 17 18  2  0  0  0
  7  2  1  0  0  0
 34 30  1  0  0  0
 18 12  1  0  0  0
 28 19  1  0  0  0
 18  7  1  0  0  0
 28 23  1  0  0  0
M  END
> <minimizedAffinity>
-7.87015

> <CNNscore>
0.2716003358

> <CNNaffinity>
6.2908859253

> <CNN_VS>
1.7086067200

> <CNNaffinity_variance>
0.0651174039

$$$$



 35 40  0  0  0  0  0  0  0  0999 V2000
   10.4493    0.2942   22.6865 C   0  0  0  0  0  0  0  0  0  0  0  0
    9.1256   -0.2706   22.2637 C   0  0  0  0  0  0  0  0  0  0  0  0
    8.4243    0.6176   21.2791 C   0  0  0  0  0  0  0  0  0  0  0  0
    7.1193   -0.0286   20.9196 N   0  0  0  0  0  0  0  0  0  0  0  0
    7.0139   -1.3161   21.6819 C   0  0  0  0  0  0  0  0  0  0  0  0
    5.8695   -2.2841   21.6237 O   0  0  0  0  0  0  0  0  0  0  0  0
    8.2539   -1.4657   22.5126 C   0  0  0  0  0  0  0  0  0  0  0  0
    7.2804   -2.5972   22.6605 C   0  0  0  0  0  0  0  0  0  0  0  0
    7.5936   -3.7411   23.5788 N   0  0  0  0  0  0  0  0  0  0  0  0
    8.8805   -3.7534   24.3494 C   0  0  0  0  0  0  0  0  0  0  0  0
    9.1938   -4.8973   25.2678 O   0  0  0  0  0  0  0  0  0  0  0  0
    9.8541   -2.6219   24.2016 C   0  0  0  0  0  0  0  0  0  0  0  0
   11.1410   -2.6343   24.9722 C   0  0  0  0  0  0  0  0  0  0  0  0
   12.1145   -1.5028   24.8244 C   0  0  0  0  0  0  0  0  0  0  0  0
   11.8012   -0.3589   23.9060 C   0  0  0  0  0  0  0  0  0  0  0  0
   12.7748    0.7726   23.7582 F   0  0  0  0  0  0  0  0  0  0  0  0
   10.5144   -0.3466   23.1354 C   0  0  0  0  0  0  0  0  0  0  0  0
    9.5408   -1.4781   23.2833 C   0  0  0  0  0  0  0  0  0  0  0  0
    6.0987    0.5170   19.9652 C   0  0  0  0  0  0  0  0  0  0  0  0
    6.0662    0.0346   18.5454 C   0  0  0  0  0  0  0  0  0  0  0  0
    5.0456    0.5802   17.5911 N   0  0  0  0  0  0  0  0  0  0  0  0
    4.0575    1.6082   18.0567 C   0  0  0  0  0  0  0  0  0  0  0  0
    4.0900    2.0907   19.4766 C   0  0  0  0  0  0  0  0  0  0  0  0
    3.1019    3.1188   19.9422 C   0  0  0  0  0  0  0  0  0  0  0  0
    3.1345    3.6012   21.3622 C   0  0  0  0  0  0  0  0  0  0  0  0
    4.1551    3.0556   22.3164 C   0  0  0  0  0  0  0  0  0  0  0  0
    5.1431    2.0275   21.8508 C   0  0  0  0  0  0  0  0  0  0  0  0
    5.1106    1.5451   20.4309 C   0  0  0  0  0  0  0  0  0  0  0  0
    6.6200   -4.8726   23.7266 C   0  0  0  0  0  0  0  0  0  0  0  0
    5.7279   -4.9420   24.9305 C   0  0  0  0  0  0  0  0  0  0  0  0
    5.0690   -6.1770   25.4696 N   0  0  0  0  0  0  0  0  0  0  0  0
    4.2719   -5.7869   26.6789 C   0  0  0  0  0  0  0  0  0  0  0  0
    4.4383   -4.3108   26.8872 C   0  0  0  0  0  0  0  0  0  0  0  0
    5.3381   -3.7886   25.8067 N   0  0  0  0  0  0  0  0  0  0  0  0
    5.7720   -2.3633   25.6328 C   0  0  0  0  0  0  0  0  0  0  0  0
  2  1  1  0  0  0
  2  3  1  0  0  0
  3  4  1  0  0  0
  4 19  1  0  0  0
 19 20  2  0  0  0
 20 21  1  0  0  0
 21 22  2  0  0  0
 22 23  1  0  0  0
 23 24  2  0  0  0
 24 25  1  0  0  0
 25 26  2  0  0  0
 26 27  1  0  0  0
 27 28  2  0  0  0
  4  5  1  0  0  0
  5  6  2  0  0  0
  5  7  1  0  0  0
  7  8  1  0  0  0
  8  9  1  0  0  0
  9 29  1  0  0  0
 29 30  1  0  0  0
 30 31  2  0  0  0
 31 32  1  0  0  0
 32 33  2  0  0  0
 33 34  1  0  0  0
 34 35  1  0  0  0
  9 10  1  0  0  0
 10 11  2  0  0  0
 10 12  1  0  0  0
 12 13  2  0  0  0
 13 14  1  0  0  0
 14 15  2  0  0  0
 15 16  1  0  0  0
 15 17  1  0  0  0
 17 18  2  0  0  0
  7  2  1  0  0  0
 34 30  1  0  0  0
 18 12  1  0  0  0
 28 19  1  0  0  0
 18  7  1  0  0  0
 28 23  1  0  0  0
M  END
> <minimizedAffinity>
-9.04372

> <CNNscore>
0.2655077577

> <CNNaffinity>
6.4392700195

> <CNN_VS>
1.7096761465

> <CNNaffinity_variance>
0.0590448864

$$$$



 35 40  0  0  0  0  0  0  0  0999 V2000
   10.9109   -3.3207   26.0567 C   0  0  0  0  0  0  0  0  0  0  0  0
    9.5217   -2.8878   25.6922 C   0  0  0  0  0  0  0  0  0  0  0  0
    8.4801   -3.8065   26.2587 C   0  0  0  0  0  0  0  0  0  0  0  0
    7.1335   -3.2934   25.8422 N   0  0  0  0  0  0  0  0  0  0  0  0
    7.3430   -2.0576   25.0183 C   0  0  0  0  0  0  0  0  0  0  0  0
    6.2655   -1.2196   24.3963 O   0  0  0  0  0  0  0  0  0  0  0  0
    8.8189   -1.8069   24.9255 C   0  0  0  0  0  0  0  0  0  0  0  0
    7.9817   -0.7962   24.1994 C   0  0  0  0  0  0  0  0  0  0  0  0
    8.6394    0.3365   23.4683 N   0  0  0  0  0  0  0  0  0  0  0  0
   10.1344    0.4585   23.4635 C   0  0  0  0  0  0  0  0  0  0  0  0
   10.7921    1.5912   22.7325 O   0  0  0  0  0  0  0  0  0  0  0  0
   10.9717   -0.5522   24.1897 C   0  0  0  0  0  0  0  0  0  0  0  0
   12.4667   -0.4302   24.1849 C   0  0  0  0  0  0  0  0  0  0  0  0
   13.3040   -1.4409   24.9110 C   0  0  0  0  0  0  0  0  0  0  0  0
   12.6463   -2.5736   25.6421 C   0  0  0  0  0  0  0  0  0  0  0  0
   13.4836   -3.5843   26.3683 F   0  0  0  0  0  0  0  0  0  0  0  0
   11.1513   -2.6956   25.6469 C   0  0  0  0  0  0  0  0  0  0  0  0
   10.3140   -1.6849   24.9207 C   0  0  0  0  0  0  0  0  0  0  0  0
    5.8099   -3.9082   26.1888 C   0  0  0  0  0  0  0  0  0  0  0  0
    5.2272   -3.7122   27.5570 C   0  0  0  0  0  0  0  0  0  0  0  0
    3.9036   -4.3270   27.9036 N   0  0  0  0  0  0  0  0  0  0  0  0
    3.1628   -5.1377   26.8819 C   0  0  0  0  0  0  0  0  0  0  0  0
    3.7455   -5.3336   25.5137 C   0  0  0  0  0  0  0  0  0  0  0  0
    3.0045   -6.1444   24.4920 C   0  0  0  0  0  0  0  0  0  0  0  0
    3.5873   -6.3403   23.1238 C   0  0  0  0  0  0  0  0  0  0  0  0
    4.9109   -5.7255   22.7773 C   0  0  0  0  0  0  0  0  0  0  0  0
    5.6518   -4.9148   23.7989 C   0  0  0  0  0  0  0  0  0  0  0  0
    5.0691   -4.7189   25.1671 C   0  0  0  0  0  0  0  0  0  0  0  0
    7.8020    1.3473   22.7421 C   0  0  0  0  0  0  0  0  0  0  0  0
    7.0288    2.3747   23.5144 C   0  0  0  0  0  0  0  0  0  0  0  0
    7.2364    2.7348   24.9557 N   0  0  0  0  0  0  0  0  0  0  0  0
    6.2481    3.8050   25.3132 C   0  0  0  0  0  0  0  0  0  0  0  0
    5.4296    4.1064   24.0927 C   0  0  0  0  0  0  0  0  0  0  0  0
    5.9121    3.2224   22.9811 N   0  0  0  0  0  0  0  0  0  0  0  0
    5.3726    3.1915   21.5818 C   0  0  0  0  0  0  0  0  0  0  0  0
  2  1  1  0  0  0
  2  3  1  0  0  0
  3  4  1  0  0  0
  4 19  1  0  0  0
 19 20  2  0  0  0
 20 21  1  0  0  0
 21 22  2  0  0  0
 22 23  1  0  0  0
 23 24  2  0  0  0
 24 25  1  0  0  0
 25 26  2  0  0  0
 26 27  1  0  0  0
 27 28  2  0  0  0
  4  5  1  0  0  0
  5  6  2  0  0  0
  5  7  1  0  0  0
  7  8  1  0  0  0
  8  9  1  0  0  0
  9 29  1  0  0  0
 29 30  1  0  0  0
 30 31  2  0  0  0
 31 32  1  0  0  0
 32 33  2  0  0  0
 33 34  1  0  0  0
 34 35  1  0  0  0
  9 10  1  0  0  0
 10 11  2  0  0  0
 10 12  1  0  0  0
 12 13  2  0  0  0
 13 14  1  0  0  0
 14 15  2  0  0  0
 15 16  1  0  0  0
 15 17  1  0  0  0
 17 18  2  0  0  0
  7  2  1  0  0  0
 34 30  1  0  0  0
 18 12  1  0  0  0
 28 19  1  0  0  0
 18  7  1  0  0  0
 28 23  1  0  0  0
M  END
> <minimizedAffinity>
-8.01601

> <CNNscore>
0.2636847198

> <CNNaffinity>
6.6036291122

> <CNN_VS>
1.7412761450

> <CNNaffinity_variance>
0.2450592965

$$$$



 35 40  0  0  0  0  0  0  0  0999 V2000
    7.1176    0.0565   20.0591 C   0  0  0  0  0  0  0  0  0  0  0  0
    7.5154    0.0924   21.5051 C   0  0  0  0  0  0  0  0  0  0  0  0
    8.9091   -0.4199   21.7173 C   0  0  0  0  0  0  0  0  0  0  0  0
    9.2123   -0.3445   23.1844 N   0  0  0  0  0  0  0  0  0  0  0  0
    8.0059    0.2143   23.8788 C   0  0  0  0  0  0  0  0  0  0  0  0
    7.8718    0.4599   25.3525 O   0  0  0  0  0  0  0  0  0  0  0  0
    6.9571    0.4844   22.8410 C   0  0  0  0  0  0  0  0  0  0  0  0
    6.5361    0.8311   24.2383 C   0  0  0  0  0  0  0  0  0  0  0  0
    5.1692    1.3943   24.4918 N   0  0  0  0  0  0  0  0  0  0  0  0
    4.2232    1.6106   23.3481 C   0  0  0  0  0  0  0  0  0  0  0  0
    2.8562    2.1737   23.6016 O   0  0  0  0  0  0  0  0  0  0  0  0
    4.6441    1.2638   21.9507 C   0  0  0  0  0  0  0  0  0  0  0  0
    3.6981    1.4801   20.8069 C   0  0  0  0  0  0  0  0  0  0  0  0
    4.1190    1.1333   19.4096 C   0  0  0  0  0  0  0  0  0  0  0  0
    5.4860    0.5702   19.1561 C   0  0  0  0  0  0  0  0  0  0  0  0
    5.9069    0.2234   17.7587 F   0  0  0  0  0  0  0  0  0  0  0  0
    6.4320    0.3539   20.2998 C   0  0  0  0  0  0  0  0  0  0  0  0
    6.0111    0.7007   21.6971 C   0  0  0  0  0  0  0  0  0  0  0  0
   10.4963   -0.7558   23.8416 C   0  0  0  0  0  0  0  0  0  0  0  0
   11.7291    0.0808   23.6683 C   0  0  0  0  0  0  0  0  0  0  0  0
   13.0132   -0.3305   24.3255 N   0  0  0  0  0  0  0  0  0  0  0  0
   13.0644   -1.5785   25.1561 C   0  0  0  0  0  0  0  0  0  0  0  0
   11.8315   -2.4151   25.3295 C   0  0  0  0  0  0  0  0  0  0  0  0
   11.8828   -3.6632   26.1601 C   0  0  0  0  0  0  0  0  0  0  0  0
   10.6499   -4.4998   26.3334 C   0  0  0  0  0  0  0  0  0  0  0  0
    9.3659   -4.0885   25.6762 C   0  0  0  0  0  0  0  0  0  0  0  0
    9.3147   -2.8405   24.8456 C   0  0  0  0  0  0  0  0  0  0  0  0
   10.5474   -2.0039   24.6722 C   0  0  0  0  0  0  0  0  0  0  0  0
    4.7482    1.7411   25.8892 C   0  0  0  0  0  0  0  0  0  0  0  0
    4.7482    0.6866   26.9560 C   0  0  0  0  0  0  0  0  0  0  0  0
    3.9899   -0.6071   26.9169 N   0  0  0  0  0  0  0  0  0  0  0  0
    4.2794   -1.3526   28.1859 C   0  0  0  0  0  0  0  0  0  0  0  0
    5.2167   -0.5196   29.0093 C   0  0  0  0  0  0  0  0  0  0  0  0
    5.5063    0.7406   28.2491 N   0  0  0  0  0  0  0  0  0  0  0  0
    6.3977    1.8586   28.7025 C   0  0  0  0  0  0  0  0  0  0  0  0
  2  1  1  0  0  0
  2  3  1  0  0  0
  3  4  1  0  0  0
  4 19  1  0  0  0
 19 20  2  0  0  0
 20 21  1  0  0  0
 21 22  2  0  0  0
 22 23  1  0  0  0
 23 24  2  0  0  0
 24 25  1  0  0  0
 25 26  2  0  0  0
 26 27  1  0  0  0
 27 28  2  0  0  0
  4  5  1  0  0  0
  5  6  2  0  0  0
  5  7  1  0  0  0
  7  8  1  0  0  0
  8  9  1  0  0  0
  9 29  1  0  0  0
 29 30  1  0  0  0
 30 31  2  0  0  0
 31 32  1  0  0  0
 32 33  2  0  0  0
 33 34  1  0  0  0
 34 35  1  0  0  0
  9 10  1  0  0  0
 10 11  2  0  0  0
 10 12  1  0  0  0
 12 13  2  0  0  0
 13 14  1  0  0  0
 14 15  2  0  0  0
 15 16  1  0  0  0
 15 17  1  0  0  0
 17 18  2  0  0  0
  7  2  1  0  0  0
 34 30  1  0  0  0
 18 12  1  0  0  0
 28 19  1  0  0  0
 18  7  1  0  0  0
 28 23  1  0  0  0
M  END
> <minimizedAffinity>
-8.28488

> <CNNscore>
0.2605757713

> <CNNaffinity>
6.3012285233

> <CNN_VS>
1.6419475079

> <CNNaffinity_variance>
0.1589946002

$$$$
