


 38 43  0  0  0  0  0  0  0  0999 V2000
   -7.6066   -1.6876  -24.0291 N   0  0  0  0  0  0  0  0  0  0  0  0
   -7.9349   -0.2272  -24.1254 C   0  0  0  0  0  0  0  0  0  0  0  0
   -9.3434    0.2408  -23.9085 C   0  0  0  0  0  0  0  0  0  0  0  0
  -10.6988    0.8543  -23.7174 C   0  0  0  0  0  0  0  0  0  0  0  0
  -11.8414    0.5271  -23.4645 O   0  0  0  0  0  0  0  0  0  0  0  0
  -10.5671    2.3368  -23.9037 N   0  0  0  0  0  0  0  0  0  0  0  0
   -9.1303    2.6397  -24.2098 C   0  0  0  0  0  0  0  0  0  0  0  0
   -8.3740    1.3442  -24.2128 C   0  0  0  0  0  0  0  0  0  0  0  0
   -6.9060    1.1810  -24.4742 C   0  0  0  0  0  0  0  0  0  0  0  0
  -10.4237   -0.7517  -23.5951 C   0  0  0  0  0  0  0  0  0  0  0  0
  -11.8321   -0.2837  -23.3781 C   0  0  0  0  0  0  0  0  0  0  0  0
  -12.9123   -1.2762  -23.0648 C   0  0  0  0  0  0  0  0  0  0  0  0
  -14.3209   -0.8082  -22.8478 Cl  0  0  0  0  0  0  0  0  0  0  0  0
  -12.5840   -2.7366  -22.9684 C   0  0  0  0  0  0  0  0  0  0  0  0
  -11.1755   -3.2046  -23.1854 C   0  0  0  0  0  0  0  0  0  0  0  0
  -10.0953   -2.2121  -23.4987 C   0  0  0  0  0  0  0  0  0  0  0  0
   -8.6868   -2.6801  -23.7157 C   0  0  0  0  0  0  0  0  0  0  0  0
   -8.3584   -4.1405  -23.6194 O   0  0  0  0  0  0  0  0  0  0  0  0
  -11.6773    3.3403  -23.8016 C   0  0  0  0  0  0  0  0  0  0  0  0
  -12.5358    3.3867  -22.5724 C   0  0  0  0  0  0  0  0  0  0  0  0
  -13.6460    4.3903  -22.4704 N   0  0  0  0  0  0  0  0  0  0  0  0
  -13.8977    5.3473  -23.5976 C   0  0  0  0  0  0  0  0  0  0  0  0
  -13.0392    5.3009  -24.8268 C   0  0  0  0  0  0  0  0  0  0  0  0
  -13.2910    6.2581  -25.9540 C   0  0  0  0  0  0  0  0  0  0  0  0
  -12.4325    6.2116  -27.1832 C   0  0  0  0  0  0  0  0  0  0  0  0
  -11.3223    5.2081  -27.2852 C   0  0  0  0  0  0  0  0  0  0  0  0
  -11.0706    4.2510  -26.1580 C   0  0  0  0  0  0  0  0  0  0  0  0
  -11.9290    4.2974  -24.9288 C   0  0  0  0  0  0  0  0  0  0  0  0
   -6.1980   -2.1556  -24.2461 C   0  0  0  0  0  0  0  0  0  0  0  0
   -5.8084   -2.7808  -25.5527 C   0  0  0  0  0  0  0  0  0  0  0  0
   -8.7735   -6.2056  -28.0979 C   0  0  0  0  0  0  0  0  0  0  0  0
   -7.6735   -5.9131  -27.1210 C   0  0  0  0  0  0  0  0  0  0  0  0
   -7.2909   -4.4932  -26.8253 C   0  0  0  0  0  0  0  0  0  0  0  0
   -6.1909   -4.2007  -25.8484 N   0  0  0  0  0  0  0  0  0  0  0  0
   -5.4734   -5.3281  -25.1672 C   0  0  0  0  0  0  0  0  0  0  0  0
   -5.8559   -6.7481  -25.4628 C   0  0  0  0  0  0  0  0  0  0  0  0
   -6.9559   -7.0406  -26.4397 O   0  0  0  0  0  0  0  0  0  0  0  0
   -6.6788   -3.4340  -26.3116 H   0  0  0  0  0  0  0  0  0  0  0  0
 32 31  1  0  0  0
 32 33  1  0  0  0
 33 34  1  0  0  0
 34 30  1  0  0  0
 30 29  1  0  0  0
 29  1  1  0  0  0
  1  2  1  0  0  0
  3  2  1  0  0  0
  3  4  1  0  0  0
  4  5  2  0  0  0
  4  6  1  0  0  0
  6 19  1  0  0  0
 19 20  2  0  0  0
 20 21  1  0  0  0
 21 22  2  0  0  0
 22 23  1  0  0  0
 23 24  2  0  0  0
 24 25  1  0  0  0
 25 26  2  0  0  0
 26 27  1  0  0  0
 27 28  2  0  0  0
  6  7  1  0  0  0
  7  8  1  0  0  0
  8  9  1  0  0  0
  3 10  1  0  0  0
 10 11  2  0  0  0
 11 12  1  0  0  0
 12 13  1  0  0  0
 12 14  2  0  0  0
 14 15  1  0  0  0
 15 16  2  0  0  0
 16 17  1  0  0  0
 17 18  2  0  0  0
 34 35  1  0  0  0
 35 36  1  0  0  0
 36 37  1  0  0  0
 37 32  1  0  0  0
 17  1  1  0  0  0
  8  3  1  0  0  0
 16 10  1  0  0  0
 28 19  1  0  0  0
 28 23  1  0  0  0
 34 38  1  0  0  0
M  CHG 1  34   1
M  END
> <minimizedAffinity>
-7.89023

> <CNNscore>
0.8321780562

> <CNNaffinity>
7.0044236183

> <CNN_VS>
5.8289275169

> <CNNaffinity_variance>
0.0736851320

$$$$



 38 43  0  0  0  0  0  0  0  0999 V2000
   -7.6746   -1.5080  -23.5360 N   0  0  0  0  0  0  0  0  0  0  0  0
   -7.9808   -0.0485  -23.6980 C   0  0  0  0  0  0  0  0  0  0  0  0
   -9.3979    0.4350  -23.6086 C   0  0  0  0  0  0  0  0  0  0  0  0
  -10.7587    1.0628  -23.5446 C   0  0  0  0  0  0  0  0  0  0  0  0
  -11.9209    0.7506  -23.3765 O   0  0  0  0  0  0  0  0  0  0  0  0
  -10.5989    2.5387  -23.7594 N   0  0  0  0  0  0  0  0  0  0  0  0
   -9.1393    2.8231  -23.9561 C   0  0  0  0  0  0  0  0  0  0  0  0
   -8.3971    1.5229  -23.8629 C   0  0  0  0  0  0  0  0  0  0  0  0
   -6.9143    1.3424  -23.9999 C   0  0  0  0  0  0  0  0  0  0  0  0
  -10.5089   -0.5411  -23.3573 C   0  0  0  0  0  0  0  0  0  0  0  0
  -11.9260   -0.0576  -23.2679 C   0  0  0  0  0  0  0  0  0  0  0  0
  -13.0370   -1.0336  -23.0166 C   0  0  0  0  0  0  0  0  0  0  0  0
  -14.4542   -0.5502  -22.9272 Cl  0  0  0  0  0  0  0  0  0  0  0  0
  -12.7308   -2.4931  -22.8546 C   0  0  0  0  0  0  0  0  0  0  0  0
  -11.3137   -2.9765  -22.9440 C   0  0  0  0  0  0  0  0  0  0  0  0
  -10.2028   -2.0005  -23.1953 C   0  0  0  0  0  0  0  0  0  0  0  0
   -8.7856   -2.4840  -23.2847 C   0  0  0  0  0  0  0  0  0  0  0  0
   -8.4794   -3.9434  -23.1228 O   0  0  0  0  0  0  0  0  0  0  0  0
  -11.7045    3.5522  -23.7748 C   0  0  0  0  0  0  0  0  0  0  0  0
  -12.5352    3.7747  -22.5457 C   0  0  0  0  0  0  0  0  0  0  0  0
  -13.6409    4.7883  -22.5611 N   0  0  0  0  0  0  0  0  0  0  0  0
  -13.9158    5.5793  -23.8055 C   0  0  0  0  0  0  0  0  0  0  0  0
  -13.0851    5.3569  -25.0346 C   0  0  0  0  0  0  0  0  0  0  0  0
  -13.3602    6.1480  -26.2790 C   0  0  0  0  0  0  0  0  0  0  0  0
  -12.5294    5.9254  -27.5080 C   0  0  0  0  0  0  0  0  0  0  0  0
  -11.4238    4.9119  -27.4926 C   0  0  0  0  0  0  0  0  0  0  0  0
  -11.1488    4.1208  -26.2482 C   0  0  0  0  0  0  0  0  0  0  0  0
  -11.9795    4.3433  -25.0192 C   0  0  0  0  0  0  0  0  0  0  0  0
   -6.2574   -1.9914  -23.6254 C   0  0  0  0  0  0  0  0  0  0  0  0
   -5.8466   -2.9083  -24.7393 C   0  0  0  0  0  0  0  0  0  0  0  0
   -5.6406   -6.9577  -21.4898 C   0  0  0  0  0  0  0  0  0  0  0  0
   -5.6955   -6.4148  -22.8870 C   0  0  0  0  0  0  0  0  0  0  0  0
   -5.7436   -4.9330  -23.1145 C   0  0  0  0  0  0  0  0  0  0  0  0
   -5.7985   -4.3901  -24.5118 N   0  0  0  0  0  0  0  0  0  0  0  0
   -5.8053   -5.3290  -25.6815 C   0  0  0  0  0  0  0  0  0  0  0  0
   -5.7572   -6.8110  -25.4540 C   0  0  0  0  0  0  0  0  0  0  0  0
   -5.7023   -7.3539  -24.0568 O   0  0  0  0  0  0  0  0  0  0  0  0
   -5.7939   -3.7516  -23.7163 H   0  0  0  0  0  0  0  0  0  0  0  0
 32 31  1  0  0  0
 32 33  1  0  0  0
 33 34  1  0  0  0
 34 30  1  0  0  0
 30 29  1  0  0  0
 29  1  1  0  0  0
  1  2  1  0  0  0
  3  2  1  0  0  0
  3  4  1  0  0  0
  4  5  2  0  0  0
  4  6  1  0  0  0
  6 19  1  0  0  0
 19 20  2  0  0  0
 20 21  1  0  0  0
 21 22  2  0  0  0
 22 23  1  0  0  0
 23 24  2  0  0  0
 24 25  1  0  0  0
 25 26  2  0  0  0
 26 27  1  0  0  0
 27 28  2  0  0  0
  6  7  1  0  0  0
  7  8  1  0  0  0
  8  9  1  0  0  0
  3 10  1  0  0  0
 10 11  2  0  0  0
 11 12  1  0  0  0
 12 13  1  0  0  0
 12 14  2  0  0  0
 14 15  1  0  0  0
 15 16  2  0  0  0
 16 17  1  0  0  0
 17 18  2  0  0  0
 34 35  1  0  0  0
 35 36  1  0  0  0
 36 37  1  0  0  0
 37 32  1  0  0  0
 17  1  1  0  0  0
  8  3  1  0  0  0
 16 10  1  0  0  0
 28 19  1  0  0  0
 28 23  1  0  0  0
 34 38  1  0  0  0
M  CHG 1  34   1
M  END
> <minimizedAffinity>
-7.68950

> <CNNscore>
0.8194134235

> <CNNaffinity>
6.8957948685

> <CNN_VS>
5.6505069733

> <CNNaffinity_variance>
0.0543925390

$$$$



 38 43  0  0  0  0  0  0  0  0999 V2000
   -7.0830   -0.8567  -23.6540 N   0  0  0  0  0  0  0  0  0  0  0  0
   -7.5471    0.5637  -23.7845 C   0  0  0  0  0  0  0  0  0  0  0  0
   -9.0109    0.8837  -23.7162 C   0  0  0  0  0  0  0  0  0  0  0  0
  -10.4344    1.3542  -23.6682 C   0  0  0  0  0  0  0  0  0  0  0  0
  -11.5576    0.9099  -23.5362 O   0  0  0  0  0  0  0  0  0  0  0  0
  -10.4362    2.8443  -23.8399 N   0  0  0  0  0  0  0  0  0  0  0  0
   -9.0138    3.2949  -23.9941 C   0  0  0  0  0  0  0  0  0  0  0  0
   -8.1330    2.0832  -23.9176 C   0  0  0  0  0  0  0  0  0  0  0  0
   -6.6368    2.0727  -24.0239 C   0  0  0  0  0  0  0  0  0  0  0  0
  -10.0108   -0.2167  -23.5174 C   0  0  0  0  0  0  0  0  0  0  0  0
  -11.4746    0.1034  -23.4491 C   0  0  0  0  0  0  0  0  0  0  0  0
  -12.4744   -0.9970  -23.2504 C   0  0  0  0  0  0  0  0  0  0  0  0
  -13.9383   -0.6770  -23.1821 Cl  0  0  0  0  0  0  0  0  0  0  0  0
  -12.0104   -2.4174  -23.1199 C   0  0  0  0  0  0  0  0  0  0  0  0
  -10.5465   -2.7375  -23.1882 C   0  0  0  0  0  0  0  0  0  0  0  0
   -9.5467   -1.6371  -23.3869 C   0  0  0  0  0  0  0  0  0  0  0  0
   -8.0828   -1.9571  -23.4552 C   0  0  0  0  0  0  0  0  0  0  0  0
   -7.6188   -3.3776  -23.3248 O   0  0  0  0  0  0  0  0  0  0  0  0
  -11.6478    3.7286  -23.8548 C   0  0  0  0  0  0  0  0  0  0  0  0
  -12.4777    3.8848  -22.6151 C   0  0  0  0  0  0  0  0  0  0  0  0
  -13.6892    4.7691  -22.6300 N   0  0  0  0  0  0  0  0  0  0  0  0
  -14.0708    5.4972  -23.8847 C   0  0  0  0  0  0  0  0  0  0  0  0
  -13.2408    5.3411  -25.1244 C   0  0  0  0  0  0  0  0  0  0  0  0
  -13.6225    6.0693  -26.3791 C   0  0  0  0  0  0  0  0  0  0  0  0
  -12.7925    5.9131  -27.6187 C   0  0  0  0  0  0  0  0  0  0  0  0
  -11.5810    5.0288  -27.6038 C   0  0  0  0  0  0  0  0  0  0  0  0
  -11.1994    4.3007  -26.3492 C   0  0  0  0  0  0  0  0  0  0  0  0
  -12.0293    4.4568  -25.1095 C   0  0  0  0  0  0  0  0  0  0  0  0
   -5.6191   -1.1768  -23.7223 C   0  0  0  0  0  0  0  0  0  0  0  0
   -4.7123   -0.7850  -22.5934 C   0  0  0  0  0  0  0  0  0  0  0  0
   -5.4771    0.5005  -17.6173 C   0  0  0  0  0  0  0  0  0  0  0  0
   -5.4340   -0.5379  -18.6989 C   0  0  0  0  0  0  0  0  0  0  0  0
   -5.0947   -0.1422  -20.1054 C   0  0  0  0  0  0  0  0  0  0  0  0
   -5.0516   -1.1806  -21.1869 N   0  0  0  0  0  0  0  0  0  0  0  0
   -5.3478   -2.6147  -20.8620 C   0  0  0  0  0  0  0  0  0  0  0  0
   -5.6871   -3.0105  -19.4555 C   0  0  0  0  0  0  0  0  0  0  0  0
   -5.7302   -1.9721  -18.3739 O   0  0  0  0  0  0  0  0  0  0  0  0
   -4.8502   -0.2055  -21.4079 H   0  0  0  0  0  0  0  0  0  0  0  0
 32 31  1  0  0  0
 32 33  1  0  0  0
 33 34  1  0  0  0
 34 30  1  0  0  0
 30 29  1  0  0  0
 29  1  1  0  0  0
  1  2  1  0  0  0
  3  2  1  0  0  0
  3  4  1  0  0  0
  4  5  2  0  0  0
  4  6  1  0  0  0
  6 19  1  0  0  0
 19 20  2  0  0  0
 20 21  1  0  0  0
 21 22  2  0  0  0
 22 23  1  0  0  0
 23 24  2  0  0  0
 24 25  1  0  0  0
 25 26  2  0  0  0
 26 27  1  0  0  0
 27 28  2  0  0  0
  6  7  1  0  0  0
  7  8  1  0  0  0
  8  9  1  0  0  0
  3 10  1  0  0  0
 10 11  2  0  0  0
 11 12  1  0  0  0
 12 13  1  0  0  0
 12 14  2  0  0  0
 14 15  1  0  0  0
 15 16  2  0  0  0
 16 17  1  0  0  0
 17 18  2  0  0  0
 34 35  1  0  0  0
 35 36  1  0  0  0
 36 37  1  0  0  0
 37 32  1  0  0  0
 17  1  1  0  0  0
  8  3  1  0  0  0
 16 10  1  0  0  0
 28 19  1  0  0  0
 28 23  1  0  0  0
 34 38  1  0  0  0
M  CHG 1  34   1
M  END
> <minimizedAffinity>
-8.96752

> <CNNscore>
0.7153884768

> <CNNaffinity>
6.8528566360

> <CNN_VS>
4.9024548531

> <CNNaffinity_variance>
0.0550457761

$$$$



 38 43  0  0  0  0  0  0  0  0999 V2000
   -7.1119   -0.9851  -23.1526 N   0  0  0  0  0  0  0  0  0  0  0  0
   -7.5494    0.4339  -23.3641 C   0  0  0  0  0  0  0  0  0  0  0  0
   -9.0107    0.7690  -23.4121 C   0  0  0  0  0  0  0  0  0  0  0  0
  -10.4286    1.2533  -23.4825 C   0  0  0  0  0  0  0  0  0  0  0  0
  -11.5633    0.8237  -23.4166 O   0  0  0  0  0  0  0  0  0  0  0  0
  -10.4014    2.7366  -23.7043 N   0  0  0  0  0  0  0  0  0  0  0  0
   -8.9666    3.1690  -23.7710 C   0  0  0  0  0  0  0  0  0  0  0  0
   -8.1071    1.9530  -23.5905 C   0  0  0  0  0  0  0  0  0  0  0  0
   -6.6074    1.9257  -23.5886 C   0  0  0  0  0  0  0  0  0  0  0  0
  -10.0345   -0.3150  -23.2485 C   0  0  0  0  0  0  0  0  0  0  0  0
  -11.4958    0.0200  -23.2965 C   0  0  0  0  0  0  0  0  0  0  0  0
  -12.5195   -1.0640  -23.1329 C   0  0  0  0  0  0  0  0  0  0  0  0
  -13.9809   -0.7290  -23.1809 Cl  0  0  0  0  0  0  0  0  0  0  0  0
  -12.0820   -2.4831  -22.9213 C   0  0  0  0  0  0  0  0  0  0  0  0
  -10.6207   -2.8182  -22.8734 C   0  0  0  0  0  0  0  0  0  0  0  0
   -9.5970   -1.7341  -23.0369 C   0  0  0  0  0  0  0  0  0  0  0  0
   -8.1356   -2.0692  -22.9890 C   0  0  0  0  0  0  0  0  0  0  0  0
   -7.6981   -3.4882  -22.7774 O   0  0  0  0  0  0  0  0  0  0  0  0
  -11.5987    3.6304  -23.8362 C   0  0  0  0  0  0  0  0  0  0  0  0
  -12.5119    3.8388  -22.6646 C   0  0  0  0  0  0  0  0  0  0  0  0
  -13.7092    4.7326  -22.7965 N   0  0  0  0  0  0  0  0  0  0  0  0
  -13.9934    5.4181  -24.1001 C   0  0  0  0  0  0  0  0  0  0  0  0
  -13.0802    5.2098  -25.2717 C   0  0  0  0  0  0  0  0  0  0  0  0
  -13.3644    5.8954  -26.5753 C   0  0  0  0  0  0  0  0  0  0  0  0
  -12.4511    5.6870  -27.7469 C   0  0  0  0  0  0  0  0  0  0  0  0
  -11.2538    4.7931  -27.6150 C   0  0  0  0  0  0  0  0  0  0  0  0
  -10.9697    4.1076  -26.3114 C   0  0  0  0  0  0  0  0  0  0  0  0
  -11.8828    4.3159  -25.1398 C   0  0  0  0  0  0  0  0  0  0  0  0
   -5.6505   -1.3202  -23.1046 C   0  0  0  0  0  0  0  0  0  0  0  0
   -4.6311   -0.2219  -23.0366 C   0  0  0  0  0  0  0  0  0  0  0  0
   -5.3030    0.1067  -17.8946 C   0  0  0  0  0  0  0  0  0  0  0  0
   -4.5706    0.5167  -19.1379 C   0  0  0  0  0  0  0  0  0  0  0  0
   -4.9670   -0.0576  -20.4656 C   0  0  0  0  0  0  0  0  0  0  0  0
   -4.2347    0.3524  -21.7089 N   0  0  0  0  0  0  0  0  0  0  0  0
   -3.1060    1.3366  -21.6243 C   0  0  0  0  0  0  0  0  0  0  0  0
   -2.7095    1.9110  -20.2965 C   0  0  0  0  0  0  0  0  0  0  0  0
   -3.4419    1.5010  -19.0533 O   0  0  0  0  0  0  0  0  0  0  0  0
   -5.0023   -0.3169  -21.7664 H   0  0  0  0  0  0  0  0  0  0  0  0
 32 31  1  0  0  0
 32 33  1  0  0  0
 33 34  1  0  0  0
 34 30  1  0  0  0
 30 29  1  0  0  0
 29  1  1  0  0  0
  1  2  1  0  0  0
  3  2  1  0  0  0
  3  4  1  0  0  0
  4  5  2  0  0  0
  4  6  1  0  0  0
  6 19  1  0  0  0
 19 20  2  0  0  0
 20 21  1  0  0  0
 21 22  2  0  0  0
 22 23  1  0  0  0
 23 24  2  0  0  0
 24 25  1  0  0  0
 25 26  2  0  0  0
 26 27  1  0  0  0
 27 28  2  0  0  0
  6  7  1  0  0  0
  7  8  1  0  0  0
  8  9  1  0  0  0
  3 10  1  0  0  0
 10 11  2  0  0  0
 11 12  1  0  0  0
 12 13  1  0  0  0
 12 14  2  0  0  0
 14 15  1  0  0  0
 15 16  2  0  0  0
 16 17  1  0  0  0
 17 18  2  0  0  0
 34 35  1  0  0  0
 35 36  1  0  0  0
 36 37  1  0  0  0
 37 32  1  0  0  0
 17  1  1  0  0  0
  8  3  1  0  0  0
 16 10  1  0  0  0
 28 19  1  0  0  0
 28 23  1  0  0  0
 34 38  1  0  0  0
M  CHG 1  34   1
M  END
> <minimizedAffinity>
-9.10991

> <CNNscore>
0.6654411554

> <CNNaffinity>
6.7258110046

> <CNN_VS>
4.4756312370

> <CNNaffinity_variance>
0.0863315836

$$$$



 38 43  0  0  0  0  0  0  0  0999 V2000
   -7.3143   -1.1926  -23.0025 N   0  0  0  0  0  0  0  0  0  0  0  0
   -7.6947    0.2453  -23.1973 C   0  0  0  0  0  0  0  0  0  0  0  0
   -9.1412    0.6348  -23.2728 C   0  0  0  0  0  0  0  0  0  0  0  0
  -10.5385    1.1722  -23.3669 C   0  0  0  0  0  0  0  0  0  0  0  0
  -11.6893    0.7836  -23.3355 O   0  0  0  0  0  0  0  0  0  0  0  0
  -10.4520    2.6572  -23.5600 N   0  0  0  0  0  0  0  0  0  0  0  0
   -9.0012    3.0376  -23.5853 C   0  0  0  0  0  0  0  0  0  0  0  0
   -8.1911    1.7876  -23.4078 C   0  0  0  0  0  0  0  0  0  0  0  0
   -6.6939    1.7051  -23.3717 C   0  0  0  0  0  0  0  0  0  0  0  0
  -10.2075   -0.4136  -23.1535 C   0  0  0  0  0  0  0  0  0  0  0  0
  -11.6540   -0.0241  -23.2290 C   0  0  0  0  0  0  0  0  0  0  0  0
  -12.7202   -1.0724  -23.1097 C   0  0  0  0  0  0  0  0  0  0  0  0
  -14.1668   -0.6829  -23.1852 Cl  0  0  0  0  0  0  0  0  0  0  0  0
  -12.3398   -2.5103  -22.9149 C   0  0  0  0  0  0  0  0  0  0  0  0
  -10.8932   -2.8998  -22.8394 C   0  0  0  0  0  0  0  0  0  0  0  0
   -9.8271   -1.8514  -22.9587 C   0  0  0  0  0  0  0  0  0  0  0  0
   -8.3804   -2.2409  -22.8832 C   0  0  0  0  0  0  0  0  0  0  0  0
   -8.0000   -3.6787  -22.6884 O   0  0  0  0  0  0  0  0  0  0  0  0
  -11.6124    3.5968  -23.7027 C   0  0  0  0  0  0  0  0  0  0  0  0
  -12.5301    3.8373  -22.5408 C   0  0  0  0  0  0  0  0  0  0  0  0
  -13.6906    4.7769  -22.6835 N   0  0  0  0  0  0  0  0  0  0  0  0
  -13.9334    5.4760  -23.9882 C   0  0  0  0  0  0  0  0  0  0  0  0
  -13.0158    5.2355  -25.1502 C   0  0  0  0  0  0  0  0  0  0  0  0
  -13.2587    5.9346  -26.4549 C   0  0  0  0  0  0  0  0  0  0  0  0
  -12.3410    5.6941  -27.6168 C   0  0  0  0  0  0  0  0  0  0  0  0
  -11.1805    4.7544  -27.4741 C   0  0  0  0  0  0  0  0  0  0  0  0
  -10.9377    4.0554  -26.1694 C   0  0  0  0  0  0  0  0  0  0  0  0
  -11.8553    4.2959  -25.0074 C   0  0  0  0  0  0  0  0  0  0  0  0
   -5.8676   -1.5821  -22.9270 C   0  0  0  0  0  0  0  0  0  0  0  0
   -5.2644   -1.9750  -21.6110 C   0  0  0  0  0  0  0  0  0  0  0  0
   -2.9537    2.4742  -20.2456 C   0  0  0  0  0  0  0  0  0  0  0  0
   -3.8148    1.2969  -19.8956 C   0  0  0  0  0  0  0  0  0  0  0  0
   -4.1091    0.2496  -20.9283 C   0  0  0  0  0  0  0  0  0  0  0  0
   -4.9701   -0.9277  -20.5784 N   0  0  0  0  0  0  0  0  0  0  0  0
   -5.5369   -1.0577  -19.1957 C   0  0  0  0  0  0  0  0  0  0  0  0
   -5.2426   -0.0104  -18.1629 C   0  0  0  0  0  0  0  0  0  0  0  0
   -4.3815    1.1669  -18.5129 O   0  0  0  0  0  0  0  0  0  0  0  0
   -4.5847   -0.8393  -21.5186 H   0  0  0  0  0  0  0  0  0  0  0  0
 32 31  1  0  0  0
 32 33  1  0  0  0
 33 34  1  0  0  0
 34 30  1  0  0  0
 30 29  1  0  0  0
 29  1  1  0  0  0
  1  2  1  0  0  0
  3  2  1  0  0  0
  3  4  1  0  0  0
  4  5  2  0  0  0
  4  6  1  0  0  0
  6 19  1  0  0  0
 19 20  2  0  0  0
 20 21  1  0  0  0
 21 22  2  0  0  0
 22 23  1  0  0  0
 23 24  2  0  0  0
 24 25  1  0  0  0
 25 26  2  0  0  0
 26 27  1  0  0  0
 27 28  2  0  0  0
  6  7  1  0  0  0
  7  8  1  0  0  0
  8  9  1  0  0  0
  3 10  1  0  0  0
 10 11  2  0  0  0
 11 12  1  0  0  0
 12 13  1  0  0  0
 12 14  2  0  0  0
 14 15  1  0  0  0
 15 16  2  0  0  0
 16 17  1  0  0  0
 17 18  2  0  0  0
 34 35  1  0  0  0
 35 36  1  0  0  0
 36 37  1  0  0  0
 37 32  1  0  0  0
 17  1  1  0  0  0
  8  3  1  0  0  0
 16 10  1  0  0  0
 28 19  1  0  0  0
 28 23  1  0  0  0
 34 38  1  0  0  0
M  CHG 1  34   1
M  END
> <minimizedAffinity>
-9.03240

> <CNNscore>
0.6457298994

> <CNNaffinity>
6.7982683182

> <CNN_VS>
4.3898448944

> <CNNaffinity_variance>
0.0614280701

$$$$



 38 43  0  0  0  0  0  0  0  0999 V2000
   -9.5219    2.9378  -24.2980 N   0  0  0  0  0  0  0  0  0  0  0  0
   -8.5372    1.8109  -24.4013 C   0  0  0  0  0  0  0  0  0  0  0  0
   -8.9801    0.4017  -24.1408 C   0  0  0  0  0  0  0  0  0  0  0  0
   -9.2749   -1.0508  -23.9099 C   0  0  0  0  0  0  0  0  0  0  0  0
  -10.2031   -1.7764  -23.6127 O   0  0  0  0  0  0  0  0  0  0  0  0
   -8.0047   -1.8207  -24.1195 N   0  0  0  0  0  0  0  0  0  0  0  0
   -6.9249   -0.8440  -24.4800 C   0  0  0  0  0  0  0  0  0  0  0  0
   -7.5277    0.5295  -24.4931 C   0  0  0  0  0  0  0  0  0  0  0  0
   -6.8049    1.8066  -24.8041 C   0  0  0  0  0  0  0  0  0  0  0  0
  -10.4076    0.1193  -23.7769 C   0  0  0  0  0  0  0  0  0  0  0  0
  -10.8505   -1.2899  -23.5164 C   0  0  0  0  0  0  0  0  0  0  0  0
  -12.2780   -1.5723  -23.1525 C   0  0  0  0  0  0  0  0  0  0  0  0
  -12.7209   -2.9816  -22.8920 Cl  0  0  0  0  0  0  0  0  0  0  0  0
  -13.2627   -0.4455  -23.0492 C   0  0  0  0  0  0  0  0  0  0  0  0
  -12.8198    0.9637  -23.3097 C   0  0  0  0  0  0  0  0  0  0  0  0
  -11.3923    1.2461  -23.6736 C   0  0  0  0  0  0  0  0  0  0  0  0
  -10.9494    2.6554  -23.9341 C   0  0  0  0  0  0  0  0  0  0  0  0
  -11.9340    3.7823  -23.8308 O   0  0  0  0  0  0  0  0  0  0  0  0
   -7.8429   -3.3064  -23.9912 C   0  0  0  0  0  0  0  0  0  0  0  0
   -7.2347   -3.8902  -22.7506 C   0  0  0  0  0  0  0  0  0  0  0  0
   -7.0728   -5.3759  -22.6223 N   0  0  0  0  0  0  0  0  0  0  0  0
   -7.5193   -6.2778  -23.7346 C   0  0  0  0  0  0  0  0  0  0  0  0
   -8.1275   -5.6940  -24.9752 C   0  0  0  0  0  0  0  0  0  0  0  0
   -8.5739   -6.5959  -26.0876 C   0  0  0  0  0  0  0  0  0  0  0  0
   -9.1822   -6.0120  -27.3282 C   0  0  0  0  0  0  0  0  0  0  0  0
   -9.3440   -4.5263  -27.4566 C   0  0  0  0  0  0  0  0  0  0  0  0
   -8.8976   -3.6244  -26.3442 C   0  0  0  0  0  0  0  0  0  0  0  0
   -8.2893   -4.2083  -25.1036 C   0  0  0  0  0  0  0  0  0  0  0  0
   -9.0789    4.3471  -24.5585 C   0  0  0  0  0  0  0  0  0  0  0  0
   -9.2440    4.9447  -25.9244 C   0  0  0  0  0  0  0  0  0  0  0  0
  -13.6935    7.5715  -25.3760 C   0  0  0  0  0  0  0  0  0  0  0  0
  -12.8362    6.6161  -26.1520 C   0  0  0  0  0  0  0  0  0  0  0  0
  -11.4688    6.2581  -25.6502 C   0  0  0  0  0  0  0  0  0  0  0  0
  -10.6114    5.3027  -26.4262 N   0  0  0  0  0  0  0  0  0  0  0  0
  -11.1216    4.7053  -27.7040 C   0  0  0  0  0  0  0  0  0  0  0  0
  -12.4891    5.0633  -28.2058 C   0  0  0  0  0  0  0  0  0  0  0  0
  -13.3464    6.0187  -27.4298 O   0  0  0  0  0  0  0  0  0  0  0  0
  -10.2645    5.7089  -25.5573 H   0  0  0  0  0  0  0  0  0  0  0  0
 32 31  1  0  0  0
 32 33  1  0  0  0
 33 34  1  0  0  0
 34 30  1  0  0  0
 30 29  1  0  0  0
 29  1  1  0  0  0
  1  2  1  0  0  0
  3  2  1  0  0  0
  3  4  1  0  0  0
  4  5  2  0  0  0
  4  6  1  0  0  0
  6 19  1  0  0  0
 19 20  2  0  0  0
 20 21  1  0  0  0
 21 22  2  0  0  0
 22 23  1  0  0  0
 23 24  2  0  0  0
 24 25  1  0  0  0
 25 26  2  0  0  0
 26 27  1  0  0  0
 27 28  2  0  0  0
  6  7  1  0  0  0
  7  8  1  0  0  0
  8  9  1  0  0  0
  3 10  1  0  0  0
 10 11  2  0  0  0
 11 12  1  0  0  0
 12 13  1  0  0  0
 12 14  2  0  0  0
 14 15  1  0  0  0
 15 16  2  0  0  0
 16 17  1  0  0  0
 17 18  2  0  0  0
 34 35  1  0  0  0
 35 36  1  0  0  0
 36 37  1  0  0  0
 37 32  1  0  0  0
 17  1  1  0  0  0
  8  3  1  0  0  0
 16 10  1  0  0  0
 28 19  1  0  0  0
 28 23  1  0  0  0
 34 38  1  0  0  0
M  CHG 1  34   1
M  END
> <minimizedAffinity>
-7.62054

> <CNNscore>
0.4269748926

> <CNNaffinity>
6.4756650925

> <CNN_VS>
2.7649464607

> <CNNaffinity_variance>
0.0894027203

$$$$



 38 43  0  0  0  0  0  0  0  0999 V2000
   -7.0998   -1.4614  -22.9363 N   0  0  0  0  0  0  0  0  0  0  0  0
   -7.2094   -0.0965  -23.5487 C   0  0  0  0  0  0  0  0  0  0  0  0
   -8.5576    0.4690  -23.8839 C   0  0  0  0  0  0  0  0  0  0  0  0
   -9.8303    1.1622  -24.2709 C   0  0  0  0  0  0  0  0  0  0  0  0
  -11.0310    0.9760  -24.2634 O   0  0  0  0  0  0  0  0  0  0  0  0
   -9.4731    2.5020  -24.8430 N   0  0  0  0  0  0  0  0  0  0  0  0
   -7.9795    2.6369  -24.8096 C   0  0  0  0  0  0  0  0  0  0  0  0
   -7.4138    1.3805  -24.2168 C   0  0  0  0  0  0  0  0  0  0  0  0
   -5.9594    1.0871  -23.9957 C   0  0  0  0  0  0  0  0  0  0  0  0
   -9.7963   -0.3303  -23.6067 C   0  0  0  0  0  0  0  0  0  0  0  0
  -11.1445    0.2353  -23.9419 C   0  0  0  0  0  0  0  0  0  0  0  0
  -12.3831   -0.5640  -23.6647 C   0  0  0  0  0  0  0  0  0  0  0  0
  -13.7314    0.0015  -23.9999 Cl  0  0  0  0  0  0  0  0  0  0  0  0
  -12.2735   -1.9289  -23.0523 C   0  0  0  0  0  0  0  0  0  0  0  0
  -10.9253   -2.4945  -22.7171 C   0  0  0  0  0  0  0  0  0  0  0  0
   -9.6867   -1.6952  -22.9943 C   0  0  0  0  0  0  0  0  0  0  0  0
   -8.3384   -2.2608  -22.6591 C   0  0  0  0  0  0  0  0  0  0  0  0
   -8.2288   -3.6257  -22.0467 O   0  0  0  0  0  0  0  0  0  0  0  0
  -10.4396    3.5268  -25.3581 C   0  0  0  0  0  0  0  0  0  0  0  0
  -10.3439    4.0013  -26.7779 C   0  0  0  0  0  0  0  0  0  0  0  0
  -11.3105    5.0262  -27.2930 N   0  0  0  0  0  0  0  0  0  0  0  0
  -12.3728    5.5766  -26.3883 C   0  0  0  0  0  0  0  0  0  0  0  0
  -12.4685    5.1022  -24.9686 C   0  0  0  0  0  0  0  0  0  0  0  0
  -13.5309    5.6526  -24.0639 C   0  0  0  0  0  0  0  0  0  0  0  0
  -13.6266    5.1781  -22.6441 C   0  0  0  0  0  0  0  0  0  0  0  0
  -12.6600    4.1533  -22.1290 C   0  0  0  0  0  0  0  0  0  0  0  0
  -11.5977    3.6028  -23.0337 C   0  0  0  0  0  0  0  0  0  0  0  0
  -11.5020    4.0773  -24.4535 C   0  0  0  0  0  0  0  0  0  0  0  0
   -5.7515   -2.0270  -22.6011 C   0  0  0  0  0  0  0  0  0  0  0  0
   -5.3742   -2.2683  -21.1695 C   0  0  0  0  0  0  0  0  0  0  0  0
   -3.1565    2.3643  -20.3820 C   0  0  0  0  0  0  0  0  0  0  0  0
   -3.9655    1.2080  -19.8734 C   0  0  0  0  0  0  0  0  0  0  0  0
   -4.2654    0.0480  -20.7758 C   0  0  0  0  0  0  0  0  0  0  0  0
   -5.0743   -1.1083  -20.2672 N   0  0  0  0  0  0  0  0  0  0  0  0
   -5.5834   -1.1045  -18.8563 C   0  0  0  0  0  0  0  0  0  0  0  0
   -5.2835    0.0556  -17.9538 C   0  0  0  0  0  0  0  0  0  0  0  0
   -4.4746    1.2119  -18.4624 O   0  0  0  0  0  0  0  0  0  0  0  0
   -4.7281   -1.1109  -21.2266 H   0  0  0  0  0  0  0  0  0  0  0  0
 32 31  1  0  0  0
 32 33  1  0  0  0
 33 34  1  0  0  0
 34 30  1  0  0  0
 30 29  1  0  0  0
 29  1  1  0  0  0
  1  2  1  0  0  0
  3  2  1  0  0  0
  3  4  1  0  0  0
  4  5  2  0  0  0
  4  6  1  0  0  0
  6 19  1  0  0  0
 19 20  2  0  0  0
 20 21  1  0  0  0
 21 22  2  0  0  0
 22 23  1  0  0  0
 23 24  2  0  0  0
 24 25  1  0  0  0
 25 26  2  0  0  0
 26 27  1  0  0  0
 27 28  2  0  0  0
  6  7  1  0  0  0
  7  8  1  0  0  0
  8  9  1  0  0  0
  3 10  1  0  0  0
 10 11  2  0  0  0
 11 12  1  0  0  0
 12 13  1  0  0  0
 12 14  2  0  0  0
 14 15  1  0  0  0
 15 16  2  0  0  0
 16 17  1  0  0  0
 17 18  2  0  0  0
 34 35  1  0  0  0
 35 36  1  0  0  0
 36 37  1  0  0  0
 37 32  1  0  0  0
 17  1  1  0  0  0
  8  3  1  0  0  0
 16 10  1  0  0  0
 28 19  1  0  0  0
 28 23  1  0  0  0
 34 38  1  0  0  0
M  CHG 1  34   1
M  END
> <minimizedAffinity>
-8.46293

> <CNNscore>
0.3374693692

> <CNNaffinity>
6.2900342941

> <CNN_VS>
2.1226940155

> <CNNaffinity_variance>
0.1516829133

$$$$



 38 43  0  0  0  0  0  0  0  0999 V2000
   -9.3182   -2.0727  -23.0473 N   0  0  0  0  0  0  0  0  0  0  0  0
   -8.4935   -0.8533  -23.3354 C   0  0  0  0  0  0  0  0  0  0  0  0
   -9.1654    0.4627  -23.5933 C   0  0  0  0  0  0  0  0  0  0  0  0
   -9.6936    1.8394  -23.8690 C   0  0  0  0  0  0  0  0  0  0  0  0
  -10.7518    2.4296  -23.9589 O   0  0  0  0  0  0  0  0  0  0  0  0
   -8.5224    2.7471  -24.1024 N   0  0  0  0  0  0  0  0  0  0  0  0
   -7.2704    1.9314  -23.9710 C   0  0  0  0  0  0  0  0  0  0  0  0
   -7.6678    0.5197  -23.6564 C   0  0  0  0  0  0  0  0  0  0  0  0
   -6.7319   -0.6329  -23.4424 C   0  0  0  0  0  0  0  0  0  0  0  0
  -10.6621    0.5594  -23.5630 C   0  0  0  0  0  0  0  0  0  0  0  0
  -11.3340    1.8755  -23.8209 C   0  0  0  0  0  0  0  0  0  0  0  0
  -12.8305    1.9721  -23.7906 C   0  0  0  0  0  0  0  0  0  0  0  0
  -13.5025    3.2882  -24.0485 Cl  0  0  0  0  0  0  0  0  0  0  0  0
  -13.6551    0.7527  -23.5025 C   0  0  0  0  0  0  0  0  0  0  0  0
  -12.9832   -0.5633  -23.2446 C   0  0  0  0  0  0  0  0  0  0  0  0
  -11.4867   -0.6600  -23.2749 C   0  0  0  0  0  0  0  0  0  0  0  0
  -10.8147   -1.9761  -23.0170 C   0  0  0  0  0  0  0  0  0  0  0  0
  -11.6394   -3.1955  -22.7289 O   0  0  0  0  0  0  0  0  0  0  0  0
   -8.5912    4.2130  -24.4127 C   0  0  0  0  0  0  0  0  0  0  0  0
   -8.3028    5.2211  -23.3401 C   0  0  0  0  0  0  0  0  0  0  0  0
   -8.3716    6.6870  -23.6504 N   0  0  0  0  0  0  0  0  0  0  0  0
   -8.7287    7.1448  -25.0334 C   0  0  0  0  0  0  0  0  0  0  0  0
   -9.0171    6.1367  -26.1061 C   0  0  0  0  0  0  0  0  0  0  0  0
   -9.3743    6.5946  -27.4892 C   0  0  0  0  0  0  0  0  0  0  0  0
   -9.6627    5.5865  -28.5618 C   0  0  0  0  0  0  0  0  0  0  0  0
   -9.5939    4.1206  -28.2515 C   0  0  0  0  0  0  0  0  0  0  0  0
   -9.2367    3.6627  -26.8685 C   0  0  0  0  0  0  0  0  0  0  0  0
   -8.9484    4.6708  -25.7958 C   0  0  0  0  0  0  0  0  0  0  0  0
   -8.6462   -3.3888  -22.7894 C   0  0  0  0  0  0  0  0  0  0  0  0
   -7.5009   -3.8280  -23.6528 C   0  0  0  0  0  0  0  0  0  0  0  0
  -10.5940   -6.4020  -26.9401 C   0  0  0  0  0  0  0  0  0  0  0  0
   -9.2469   -6.2009  -26.3117 C   0  0  0  0  0  0  0  0  0  0  0  0
   -9.0474   -5.1150  -25.2964 C   0  0  0  0  0  0  0  0  0  0  0  0
   -7.7003   -4.9139  -24.6680 N   0  0  0  0  0  0  0  0  0  0  0  0
   -6.5527   -5.7989  -25.0549 C   0  0  0  0  0  0  0  0  0  0  0  0
   -6.7521   -6.8849  -26.0702 C   0  0  0  0  0  0  0  0  0  0  0  0
   -8.0992   -7.0860  -26.6986 O   0  0  0  0  0  0  0  0  0  0  0  0
   -8.4807   -4.3121  -24.4049 H   0  0  0  0  0  0  0  0  0  0  0  0
 32 31  1  0  0  0
 32 33  1  0  0  0
 33 34  1  0  0  0
 34 30  1  0  0  0
 30 29  1  0  0  0
 29  1  1  0  0  0
  1  2  1  0  0  0
  3  2  1  0  0  0
  3  4  1  0  0  0
  4  5  2  0  0  0
  4  6  1  0  0  0
  6 19  1  0  0  0
 19 20  2  0  0  0
 20 21  1  0  0  0
 21 22  2  0  0  0
 22 23  1  0  0  0
 23 24  2  0  0  0
 24 25  1  0  0  0
 25 26  2  0  0  0
 26 27  1  0  0  0
 27 28  2  0  0  0
  6  7  1  0  0  0
  7  8  1  0  0  0
  8  9  1  0  0  0
  3 10  1  0  0  0
 10 11  2  0  0  0
 11 12  1  0  0  0
 12 13  1  0  0  0
 12 14  2  0  0  0
 14 15  1  0  0  0
 15 16  2  0  0  0
 16 17  1  0  0  0
 17 18  2  0  0  0
 34 35  1  0  0  0
 35 36  1  0  0  0
 36 37  1  0  0  0
 37 32  1  0  0  0
 17  1  1  0  0  0
  8  3  1  0  0  0
 16 10  1  0  0  0
 28 19  1  0  0  0
 28 23  1  0  0  0
 34 38  1  0  0  0
M  CHG 1  34   1
M  END
> <minimizedAffinity>
-7.70243

> <CNNscore>
0.3144715726

> <CNNaffinity>
6.2491879463

> <CNN_VS>
1.9651919603

> <CNNaffinity_variance>
0.1772670299

$$$$



 38 43  0  0  0  0  0  0  0  0999 V2000
   -6.5296   -0.6187  -23.4755 N   0  0  0  0  0  0  0  0  0  0  0  0
   -6.8602    0.6881  -24.1336 C   0  0  0  0  0  0  0  0  0  0  0  0
   -8.2924    1.0789  -24.3478 C   0  0  0  0  0  0  0  0  0  0  0  0
   -9.6703    1.6016  -24.6274 C   0  0  0  0  0  0  0  0  0  0  0  0
  -10.8338    1.2827  -24.4831 O   0  0  0  0  0  0  0  0  0  0  0  0
   -9.5326    2.9382  -25.2941 N   0  0  0  0  0  0  0  0  0  0  0  0
   -8.0696    3.2415  -25.4266 C   0  0  0  0  0  0  0  0  0  0  0  0
   -7.3031    2.0924  -24.8418 C   0  0  0  0  0  0  0  0  0  0  0  0
   -5.8095    1.9771  -24.7645 C   0  0  0  0  0  0  0  0  0  0  0  0
   -9.3942    0.1627  -23.9040 C   0  0  0  0  0  0  0  0  0  0  0  0
  -10.8265    0.5535  -24.1183 C   0  0  0  0  0  0  0  0  0  0  0  0
  -11.9282   -0.3626  -23.6745 C   0  0  0  0  0  0  0  0  0  0  0  0
  -13.3605    0.0281  -23.8887 Cl  0  0  0  0  0  0  0  0  0  0  0  0
  -11.5976   -1.6694  -23.0165 C   0  0  0  0  0  0  0  0  0  0  0  0
  -10.1654   -2.0602  -22.8022 C   0  0  0  0  0  0  0  0  0  0  0  0
   -9.0637   -1.1441  -23.2460 C   0  0  0  0  0  0  0  0  0  0  0  0
   -7.6313   -1.5348  -23.0318 C   0  0  0  0  0  0  0  0  0  0  0  0
   -7.3008   -2.8416  -22.3738 O   0  0  0  0  0  0  0  0  0  0  0  0
  -10.6600    3.8171  -25.7486 C   0  0  0  0  0  0  0  0  0  0  0  0
  -10.8043    4.1608  -27.2015 C   0  0  0  0  0  0  0  0  0  0  0  0
  -11.9317    5.0397  -27.6560 N   0  0  0  0  0  0  0  0  0  0  0  0
  -12.9147    5.5750  -26.6574 C   0  0  0  0  0  0  0  0  0  0  0  0
  -12.7703    5.2313  -25.2045 C   0  0  0  0  0  0  0  0  0  0  0  0
  -13.7534    5.7667  -24.2059 C   0  0  0  0  0  0  0  0  0  0  0  0
  -13.6090    5.4230  -22.7530 C   0  0  0  0  0  0  0  0  0  0  0  0
  -12.4817    4.5441  -22.2985 C   0  0  0  0  0  0  0  0  0  0  0  0
  -11.4986    4.0088  -23.2971 C   0  0  0  0  0  0  0  0  0  0  0  0
  -11.6430    4.3524  -24.7500 C   0  0  0  0  0  0  0  0  0  0  0  0
   -5.0973   -1.0094  -23.2613 C   0  0  0  0  0  0  0  0  0  0  0  0
   -4.0561    0.0481  -23.0429 C   0  0  0  0  0  0  0  0  0  0  0  0
   -5.1915    0.1228  -17.9730 C   0  0  0  0  0  0  0  0  0  0  0  0
   -4.4084    0.6541  -19.1368 C   0  0  0  0  0  0  0  0  0  0  0  0
   -4.6238    0.0854  -20.5079 C   0  0  0  0  0  0  0  0  0  0  0  0
   -3.8407    0.6167  -21.6718 N   0  0  0  0  0  0  0  0  0  0  0  0
   -2.8422    1.7167  -21.4644 C   0  0  0  0  0  0  0  0  0  0  0  0
   -2.6268    2.2854  -20.0931 C   0  0  0  0  0  0  0  0  0  0  0  0
   -3.4099    1.7541  -18.9293 O   0  0  0  0  0  0  0  0  0  0  0  0
   -4.5197   -0.1313  -21.8128 H   0  0  0  0  0  0  0  0  0  0  0  0
 32 31  1  0  0  0
 32 33  1  0  0  0
 33 34  1  0  0  0
 34 30  1  0  0  0
 30 29  1  0  0  0
 29  1  1  0  0  0
  1  2  1  0  0  0
  3  2  1  0  0  0
  3  4  1  0  0  0
  4  5  2  0  0  0
  4  6  1  0  0  0
  6 19  1  0  0  0
 19 20  2  0  0  0
 20 21  1  0  0  0
 21 22  2  0  0  0
 22 23  1  0  0  0
 23 24  2  0  0  0
 24 25  1  0  0  0
 25 26  2  0  0  0
 26 27  1  0  0  0
 27 28  2  0  0  0
  6  7  1  0  0  0
  7  8  1  0  0  0
  8  9  1  0  0  0
  3 10  1  0  0  0
 10 11  2  0  0  0
 11 12  1  0  0  0
 12 13  1  0  0  0
 12 14  2  0  0  0
 14 15  1  0  0  0
 15 16  2  0  0  0
 16 17  1  0  0  0
 17 18  2  0  0  0
 34 35  1  0  0  0
 35 36  1  0  0  0
 36 37  1  0  0  0
 37 32  1  0  0  0
 17  1  1  0  0  0
  8  3  1  0  0  0
 16 10  1  0  0  0
 28 19  1  0  0  0
 28 23  1  0  0  0
 34 38  1  0  0  0
M  CHG 1  34   1
M  END
> <minimizedAffinity>
-8.55190

> <CNNscore>
0.2252016813

> <CNNaffinity>
5.9989180565

> <CNN_VS>
1.3509664536

> <CNNaffinity_variance>
0.2265535295

$$$$
