


 27 31  0  0  0  0  0  0  0  0999 V2000
    6.8868   -1.5818   21.6442 O   0  0  0  0  0  0  0  0  0  0  0  0
    8.1423   -1.7477   22.4480 C   0  0  0  0  0  0  0  0  0  0  0  0
    9.4004   -0.9457   22.2937 N   0  0  0  0  0  0  0  0  0  0  0  0
   10.3958   -1.4470   23.2977 C   0  0  0  0  0  0  0  0  0  0  0  0
   10.9041   -0.3240   22.4430 C   0  0  0  0  0  0  0  0  0  0  0  0
   12.2977    0.1953   22.6379 C   0  0  0  0  0  0  0  0  0  0  0  0
   13.1831   -0.4083   23.6875 O   0  0  0  0  0  0  0  0  0  0  0  0
   12.6749   -1.5314   24.5422 C   0  0  0  0  0  0  0  0  0  0  0  0
   13.5603   -2.1351   25.5917 C   0  0  0  0  0  0  0  0  0  0  0  0
   13.0520   -3.2582   26.4463 C   0  0  0  0  0  0  0  0  0  0  0  0
   11.6584   -3.7775   26.2514 N   0  0  0  0  0  0  0  0  0  0  0  0
   10.7730   -3.1738   25.2019 C   0  0  0  0  0  0  0  0  0  0  0  0
   11.2812   -2.0508   24.3473 C   0  0  0  0  0  0  0  0  0  0  0  0
    9.7528   -2.5588   24.0725 C   0  0  0  0  0  0  0  0  0  0  0  0
   10.0074   -3.3351   24.9719 O   0  0  0  0  0  0  0  0  0  0  0  0
    8.3600   -2.7447   23.5474 N   0  0  0  0  0  0  0  0  0  0  0  0
    9.5472   -0.2181   21.6470 H   0  0  0  0  0  0  0  0  0  0  0  0
    7.3605   -3.7508   24.0360 C   0  0  0  0  0  0  0  0  0  0  0  0
    7.1253   -5.0124   23.2594 C   0  0  0  0  0  0  0  0  0  0  0  0
    6.1258   -6.0185   23.7479 N   0  0  0  0  0  0  0  0  0  0  0  0
    5.3616   -5.7631   25.0131 C   0  0  0  0  0  0  0  0  0  0  0  0
    5.5968   -4.5015   25.7897 C   0  0  0  0  0  0  0  0  0  0  0  0
    4.8325   -4.2461   27.0549 C   0  0  0  0  0  0  0  0  0  0  0  0
    5.0678   -2.9845   27.8314 C   0  0  0  0  0  0  0  0  0  0  0  0
    6.0672   -1.9783   27.3429 C   0  0  0  0  0  0  0  0  0  0  0  0
    6.8315   -2.2338   26.0777 C   0  0  0  0  0  0  0  0  0  0  0  0
    6.5963   -3.4954   25.3011 C   0  0  0  0  0  0  0  0  0  0  0  0
  1  2  2  0  0  0
  2  3  1  0  0  0
  3  4  1  0  0  0
  4  5  1  0  0  0
  5  6  1  0  0  0
  6  7  1  0  0  0
  7  8  1  0  0  0
  8  9  2  0  0  0
  9 10  1  0  0  0
 10 11  2  0  0  0
 11 12  1  0  0  0
 12 13  2  0  0  0
  4 14  1  0  0  0
 14 15  2  0  0  0
 14 16  1  0  0  0
 16 18  1  0  0  0
 18 19  2  0  0  0
 19 20  1  0  0  0
 20 21  2  0  0  0
 21 22  1  0  0  0
 22 23  2  0  0  0
 23 24  1  0  0  0
 24 25  2  0  0  0
 25 26  1  0  0  0
 26 27  2  0  0  0
 16  2  1  0  0  0
 27 18  1  0  0  0
 13  4  1  0  0  0
 27 22  1  0  0  0
 13  8  1  0  0  0
  3 17  1  0  0  0
M  END
> <minimizedAffinity>
-8.00506

> <CNNscore>
0.6847876310

> <CNNaffinity>
6.1328268051

> <CNN_VS>
4.1996841431

> <CNNaffinity_variance>
0.2156343907

$$$$



 27 31  0  0  0  0  0  0  0  0999 V2000
    5.1250   -2.9557   21.4522 O   0  0  0  0  0  0  0  0  0  0  0  0
    6.2675   -2.0580   21.8247 C   0  0  0  0  0  0  0  0  0  0  0  0
    7.2530   -2.2978   22.9299 N   0  0  0  0  0  0  0  0  0  0  0  0
    8.2198   -1.1510   22.9457 C   0  0  0  0  0  0  0  0  0  0  0  0
    8.4863   -2.1881   23.9961 C   0  0  0  0  0  0  0  0  0  0  0  0
    9.6387   -2.0194   24.9413 C   0  0  0  0  0  0  0  0  0  0  0  0
   10.5247   -0.8136   24.8362 O   0  0  0  0  0  0  0  0  0  0  0  0
   10.2582    0.2236   23.7858 C   0  0  0  0  0  0  0  0  0  0  0  0
   11.1441    1.4294   23.6806 C   0  0  0  0  0  0  0  0  0  0  0  0
   10.8776    2.4665   22.6303 C   0  0  0  0  0  0  0  0  0  0  0  0
    9.7252    2.2978   21.6851 N   0  0  0  0  0  0  0  0  0  0  0  0
    8.8392    1.0920   21.7902 C   0  0  0  0  0  0  0  0  0  0  0  0
    9.1057    0.0549   22.8406 C   0  0  0  0  0  0  0  0  0  0  0  0
    7.8317   -0.2025   21.8504 C   0  0  0  0  0  0  0  0  0  0  0  0
    8.1858    0.8535   21.3647 O   0  0  0  0  0  0  0  0  0  0  0  0
    6.6251   -0.7631   21.1576 N   0  0  0  0  0  0  0  0  0  0  0  0
    7.2635   -3.0719   23.5380 H   0  0  0  0  0  0  0  0  0  0  0  0
    5.9030   -0.1383   20.0008 C   0  0  0  0  0  0  0  0  0  0  0  0
    6.2680   -0.5169   18.5960 C   0  0  0  0  0  0  0  0  0  0  0  0
    5.5459    0.1079   17.4391 N   0  0  0  0  0  0  0  0  0  0  0  0
    4.4588    1.1112   17.6871 C   0  0  0  0  0  0  0  0  0  0  0  0
    4.0938    1.4898   19.0919 C   0  0  0  0  0  0  0  0  0  0  0  0
    3.0067    2.4931   19.3399 C   0  0  0  0  0  0  0  0  0  0  0  0
    2.6418    2.8717   20.7448 C   0  0  0  0  0  0  0  0  0  0  0  0
    3.3639    2.2469   21.9016 C   0  0  0  0  0  0  0  0  0  0  0  0
    4.4510    1.2436   21.6536 C   0  0  0  0  0  0  0  0  0  0  0  0
    4.8159    0.8650   20.2488 C   0  0  0  0  0  0  0  0  0  0  0  0
  1  2  2  0  0  0
  2  3  1  0  0  0
  3  4  1  0  0  0
  4  5  1  0  0  0
  5  6  1  0  0  0
  6  7  1  0  0  0
  7  8  1  0  0  0
  8  9  2  0  0  0
  9 10  1  0  0  0
 10 11  2  0  0  0
 11 12  1  0  0  0
 12 13  2  0  0  0
  4 14  1  0  0  0
 14 15  2  0  0  0
 14 16  1  0  0  0
 16 18  1  0  0  0
 18 19  2  0  0  0
 19 20  1  0  0  0
 20 21  2  0  0  0
 21 22  1  0  0  0
 22 23  2  0  0  0
 23 24  1  0  0  0
 24 25  2  0  0  0
 25 26  1  0  0  0
 26 27  2  0  0  0
 16  2  1  0  0  0
 27 18  1  0  0  0
 13  4  1  0  0  0
 27 22  1  0  0  0
 13  8  1  0  0  0
  3 17  1  0  0  0
M  END
> <minimizedAffinity>
-7.87828

> <CNNscore>
0.6477300525

> <CNNaffinity>
5.6933126450

> <CNN_VS>
3.6877295971

> <CNNaffinity_variance>
0.0947007015

$$$$



 27 31  0  0  0  0  0  0  0  0999 V2000
    7.8900    1.7984   20.8848 O   0  0  0  0  0  0  0  0  0  0  0  0
    8.6369    0.9035   21.8289 C   0  0  0  0  0  0  0  0  0  0  0  0
    8.2954   -0.5216   22.1490 N   0  0  0  0  0  0  0  0  0  0  0  0
    9.3038   -1.0293   23.1366 C   0  0  0  0  0  0  0  0  0  0  0  0
    8.2663   -2.0410   22.7493 C   0  0  0  0  0  0  0  0  0  0  0  0
    8.3034   -3.4182   23.3424 C   0  0  0  0  0  0  0  0  0  0  0  0
    9.3781   -3.7838   24.3230 O   0  0  0  0  0  0  0  0  0  0  0  0
   10.4157   -2.7721   24.7103 C   0  0  0  0  0  0  0  0  0  0  0  0
   11.4903   -3.1376   25.6908 C   0  0  0  0  0  0  0  0  0  0  0  0
   12.5278   -2.1260   26.0781 C   0  0  0  0  0  0  0  0  0  0  0  0
   12.4907   -0.7487   25.4850 N   0  0  0  0  0  0  0  0  0  0  0  0
   11.4160   -0.3832   24.5045 C   0  0  0  0  0  0  0  0  0  0  0  0
   10.3785   -1.3948   24.1171 C   0  0  0  0  0  0  0  0  0  0  0  0
   10.2685    0.0820   23.4268 C   0  0  0  0  0  0  0  0  0  0  0  0
   11.2561    0.3057   24.0985 O   0  0  0  0  0  0  0  0  0  0  0  0
    9.8564    1.2766   22.6186 N   0  0  0  0  0  0  0  0  0  0  0  0
    7.5417   -1.0338   21.7764 H   0  0  0  0  0  0  0  0  0  0  0  0
   10.5431    2.6100   22.6029 C   0  0  0  0  0  0  0  0  0  0  0  0
   11.9941    2.7021   22.2336 C   0  0  0  0  0  0  0  0  0  0  0  0
   12.6808    4.0356   22.2180 N   0  0  0  0  0  0  0  0  0  0  0  0
   11.9167    5.2769   22.5716 C   0  0  0  0  0  0  0  0  0  0  0  0
   10.4657    5.1848   22.9409 C   0  0  0  0  0  0  0  0  0  0  0  0
    9.7016    6.4263   23.2945 C   0  0  0  0  0  0  0  0  0  0  0  0
    8.2507    6.3341   23.6638 C   0  0  0  0  0  0  0  0  0  0  0  0
    7.5639    5.0006   23.6795 C   0  0  0  0  0  0  0  0  0  0  0  0
    8.3281    3.7593   23.3258 C   0  0  0  0  0  0  0  0  0  0  0  0
    9.7790    3.8514   22.9565 C   0  0  0  0  0  0  0  0  0  0  0  0
  1  2  2  0  0  0
  2  3  1  0  0  0
  3  4  1  0  0  0
  4  5  1  0  0  0
  5  6  1  0  0  0
  6  7  1  0  0  0
  7  8  1  0  0  0
  8  9  2  0  0  0
  9 10  1  0  0  0
 10 11  2  0  0  0
 11 12  1  0  0  0
 12 13  2  0  0  0
  4 14  1  0  0  0
 14 15  2  0  0  0
 14 16  1  0  0  0
 16 18  1  0  0  0
 18 19  2  0  0  0
 19 20  1  0  0  0
 20 21  2  0  0  0
 21 22  1  0  0  0
 22 23  2  0  0  0
 23 24  1  0  0  0
 24 25  2  0  0  0
 25 26  1  0  0  0
 26 27  2  0  0  0
 16  2  1  0  0  0
 27 18  1  0  0  0
 13  4  1  0  0  0
 27 22  1  0  0  0
 13  8  1  0  0  0
  3 17  1  0  0  0
M  END
> <minimizedAffinity>
-8.11621

> <CNNscore>
0.6438493133

> <CNNaffinity>
5.8625154495

> <CNN_VS>
3.7745766640

> <CNNaffinity_variance>
0.3081440330

$$$$



 27 31  0  0  0  0  0  0  0  0999 V2000
    6.9251   -1.5246   21.5216 O   0  0  0  0  0  0  0  0  0  0  0  0
    8.1555   -1.7500   22.3495 C   0  0  0  0  0  0  0  0  0  0  0  0
    9.5625   -1.4239   21.9446 N   0  0  0  0  0  0  0  0  0  0  0  0
   10.4715   -1.8133   23.0725 C   0  0  0  0  0  0  0  0  0  0  0  0
   11.1835   -1.2261   21.8901 C   0  0  0  0  0  0  0  0  0  0  0  0
   12.6758   -1.0752   21.9121 C   0  0  0  0  0  0  0  0  0  0  0  0
   13.4560   -1.5116   23.1166 O   0  0  0  0  0  0  0  0  0  0  0  0
   12.7440   -2.0989   24.2991 C   0  0  0  0  0  0  0  0  0  0  0  0
   13.5242   -2.5353   25.5035 C   0  0  0  0  0  0  0  0  0  0  0  0
   12.8122   -3.1226   26.6859 C   0  0  0  0  0  0  0  0  0  0  0  0
   11.3199   -3.2734   26.6639 N   0  0  0  0  0  0  0  0  0  0  0  0
   10.5397   -2.8370   25.4594 C   0  0  0  0  0  0  0  0  0  0  0  0
   11.2517   -2.2498   24.2770 C   0  0  0  0  0  0  0  0  0  0  0  0
    9.6262   -2.3802   24.1744 C   0  0  0  0  0  0  0  0  0  0  0  0
    9.7423   -2.8492   25.2892 O   0  0  0  0  0  0  0  0  0  0  0  0
    8.1949   -2.3410   23.7276 N   0  0  0  0  0  0  0  0  0  0  0  0
    9.8406   -1.0244   21.0889 H   0  0  0  0  0  0  0  0  0  0  0  0
    7.0108   -2.8105   24.5197 C   0  0  0  0  0  0  0  0  0  0  0  0
    6.1933   -1.8254   25.3017 C   0  0  0  0  0  0  0  0  0  0  0  0
    5.0092   -2.2949   26.0939 N   0  0  0  0  0  0  0  0  0  0  0  0
    4.6426   -3.7494   26.1041 C   0  0  0  0  0  0  0  0  0  0  0  0
    5.4602   -4.7344   25.3222 C   0  0  0  0  0  0  0  0  0  0  0  0
    5.0935   -6.1889   25.3324 C   0  0  0  0  0  0  0  0  0  0  0  0
    5.9111   -7.1739   24.5504 C   0  0  0  0  0  0  0  0  0  0  0  0
    7.0952   -6.7044   23.7582 C   0  0  0  0  0  0  0  0  0  0  0  0
    7.4617   -5.2499   23.7480 C   0  0  0  0  0  0  0  0  0  0  0  0
    6.6442   -4.2649   24.5300 C   0  0  0  0  0  0  0  0  0  0  0  0
  1  2  2  0  0  0
  2  3  1  0  0  0
  3  4  1  0  0  0
  4  5  1  0  0  0
  5  6  1  0  0  0
  6  7  1  0  0  0
  7  8  1  0  0  0
  8  9  2  0  0  0
  9 10  1  0  0  0
 10 11  2  0  0  0
 11 12  1  0  0  0
 12 13  2  0  0  0
  4 14  1  0  0  0
 14 15  2  0  0  0
 14 16  1  0  0  0
 16 18  1  0  0  0
 18 19  2  0  0  0
 19 20  1  0  0  0
 20 21  2  0  0  0
 21 22  1  0  0  0
 22 23  2  0  0  0
 23 24  1  0  0  0
 24 25  2  0  0  0
 25 26  1  0  0  0
 26 27  2  0  0  0
 16  2  1  0  0  0
 27 18  1  0  0  0
 13  4  1  0  0  0
 27 22  1  0  0  0
 13  8  1  0  0  0
  3 17  1  0  0  0
M  END
> <minimizedAffinity>
-7.95882

> <CNNscore>
0.6041843891

> <CNNaffinity>
6.0182366371

> <CNN_VS>
3.6361246109

> <CNNaffinity_variance>
0.1117030755

$$$$



 27 31  0  0  0  0  0  0  0  0999 V2000
    6.4079   -0.3997   23.0441 O   0  0  0  0  0  0  0  0  0  0  0  0
    7.7647   -0.7417   23.5847 C   0  0  0  0  0  0  0  0  0  0  0  0
    9.0575   -0.0843   23.2022 N   0  0  0  0  0  0  0  0  0  0  0  0
   10.1587   -0.7374   23.9837 C   0  0  0  0  0  0  0  0  0  0  0  0
   10.6258    0.3536   23.0664 C   0  0  0  0  0  0  0  0  0  0  0  0
   12.0834    0.7006   22.9949 C   0  0  0  0  0  0  0  0  0  0  0  0
   13.0738   -0.0434   23.8408 O   0  0  0  0  0  0  0  0  0  0  0  0
   12.6067   -1.1344   24.7581 C   0  0  0  0  0  0  0  0  0  0  0  0
   13.5972   -1.8784   25.6040 C   0  0  0  0  0  0  0  0  0  0  0  0
   13.1301   -2.9694   26.5213 C   0  0  0  0  0  0  0  0  0  0  0  0
   11.6725   -3.3164   26.5927 N   0  0  0  0  0  0  0  0  0  0  0  0
   10.6821   -2.5724   25.7469 C   0  0  0  0  0  0  0  0  0  0  0  0
   11.1492   -1.4815   24.8296 C   0  0  0  0  0  0  0  0  0  0  0  0
    9.5464   -1.7985   24.8493 C   0  0  0  0  0  0  0  0  0  0  0  0
    9.8729   -2.6350   25.6678 O   0  0  0  0  0  0  0  0  0  0  0  0
    8.0668   -1.8011   24.6027 N   0  0  0  0  0  0  0  0  0  0  0  0
    9.1646    0.6474   22.5522 H   0  0  0  0  0  0  0  0  0  0  0  0
    7.0653   -2.7046   25.2589 C   0  0  0  0  0  0  0  0  0  0  0  0
    6.5221   -2.3630   26.6147 C   0  0  0  0  0  0  0  0  0  0  0  0
    5.5206   -3.2665   27.2709 N   0  0  0  0  0  0  0  0  0  0  0  0
    5.0621   -4.5116   26.5712 C   0  0  0  0  0  0  0  0  0  0  0  0
    5.6053   -4.8532   25.2154 C   0  0  0  0  0  0  0  0  0  0  0  0
    5.1468   -6.0984   24.5157 C   0  0  0  0  0  0  0  0  0  0  0  0
    5.6900   -6.4399   23.1599 C   0  0  0  0  0  0  0  0  0  0  0  0
    6.6916   -5.5364   22.5037 C   0  0  0  0  0  0  0  0  0  0  0  0
    7.1500   -4.2913   23.2033 C   0  0  0  0  0  0  0  0  0  0  0  0
    6.6068   -3.9497   24.5592 C   0  0  0  0  0  0  0  0  0  0  0  0
  1  2  2  0  0  0
  2  3  1  0  0  0
  3  4  1  0  0  0
  4  5  1  0  0  0
  5  6  1  0  0  0
  6  7  1  0  0  0
  7  8  1  0  0  0
  8  9  2  0  0  0
  9 10  1  0  0  0
 10 11  2  0  0  0
 11 12  1  0  0  0
 12 13  2  0  0  0
  4 14  1  0  0  0
 14 15  2  0  0  0
 14 16  1  0  0  0
 16 18  1  0  0  0
 18 19  2  0  0  0
 19 20  1  0  0  0
 20 21  2  0  0  0
 21 22  1  0  0  0
 22 23  2  0  0  0
 23 24  1  0  0  0
 24 25  2  0  0  0
 25 26  1  0  0  0
 26 27  2  0  0  0
 16  2  1  0  0  0
 27 18  1  0  0  0
 13  4  1  0  0  0
 27 22  1  0  0  0
 13  8  1  0  0  0
  3 17  1  0  0  0
M  END
> <minimizedAffinity>
-7.81934

> <CNNscore>
0.4953235984

> <CNNaffinity>
5.9206056595

> <CNN_VS>
2.9326157570

> <CNNaffinity_variance>
0.2359733284

$$$$



 27 31  0  0  0  0  0  0  0  0999 V2000
    6.1986   -2.7835   21.9789 O   0  0  0  0  0  0  0  0  0  0  0  0
    7.2543   -1.7381   22.1857 C   0  0  0  0  0  0  0  0  0  0  0  0
    8.4117   -1.8297   23.1355 N   0  0  0  0  0  0  0  0  0  0  0  0
    9.2107   -0.5659   23.0159 C   0  0  0  0  0  0  0  0  0  0  0  0
    9.7603   -1.5431   24.0123 C   0  0  0  0  0  0  0  0  0  0  0  0
   11.0045   -1.2104   24.7813 C   0  0  0  0  0  0  0  0  0  0  0  0
   11.6990    0.0995   24.5539 O   0  0  0  0  0  0  0  0  0  0  0  0
   11.1493    1.0768   23.5575 C   0  0  0  0  0  0  0  0  0  0  0  0
   11.8438    2.3867   23.3301 C   0  0  0  0  0  0  0  0  0  0  0  0
   11.2942    3.3639   22.3336 C   0  0  0  0  0  0  0  0  0  0  0  0
   10.0500    3.0312   21.5646 N   0  0  0  0  0  0  0  0  0  0  0  0
    9.3555    1.7213   21.7920 C   0  0  0  0  0  0  0  0  0  0  0  0
    9.9052    0.7441   22.7884 C   0  0  0  0  0  0  0  0  0  0  0  0
    8.5470    0.3068   21.9922 C   0  0  0  0  0  0  0  0  0  0  0  0
    8.6849    1.3927   21.4647 O   0  0  0  0  0  0  0  0  0  0  0  0
    7.3379   -0.4176   21.4791 N   0  0  0  0  0  0  0  0  0  0  0  0
    8.6119   -2.5865   23.7325 H   0  0  0  0  0  0  0  0  0  0  0  0
    6.3806    0.0894   20.4417 C   0  0  0  0  0  0  0  0  0  0  0  0
    6.7002   -0.0693   18.9847 C   0  0  0  0  0  0  0  0  0  0  0  0
    5.7429    0.4377   17.9472 N   0  0  0  0  0  0  0  0  0  0  0  0
    4.4659    1.1035   18.3667 C   0  0  0  0  0  0  0  0  0  0  0  0
    4.1462    1.2622   19.8236 C   0  0  0  0  0  0  0  0  0  0  0  0
    2.8691    1.9279   20.2431 C   0  0  0  0  0  0  0  0  0  0  0  0
    2.5495    2.0866   21.7000 C   0  0  0  0  0  0  0  0  0  0  0  0
    3.5068    1.5796   22.7375 C   0  0  0  0  0  0  0  0  0  0  0  0
    4.7839    0.9138   22.3181 C   0  0  0  0  0  0  0  0  0  0  0  0
    5.1035    0.7551   20.8611 C   0  0  0  0  0  0  0  0  0  0  0  0
  1  2  2  0  0  0
  2  3  1  0  0  0
  3  4  1  0  0  0
  4  5  1  0  0  0
  5  6  1  0  0  0
  6  7  1  0  0  0
  7  8  1  0  0  0
  8  9  2  0  0  0
  9 10  1  0  0  0
 10 11  2  0  0  0
 11 12  1  0  0  0
 12 13  2  0  0  0
  4 14  1  0  0  0
 14 15  2  0  0  0
 14 16  1  0  0  0
 16 18  1  0  0  0
 18 19  2  0  0  0
 19 20  1  0  0  0
 20 21  2  0  0  0
 21 22  1  0  0  0
 22 23  2  0  0  0
 23 24  1  0  0  0
 24 25  2  0  0  0
 25 26  1  0  0  0
 26 27  2  0  0  0
 16  2  1  0  0  0
 27 18  1  0  0  0
 13  4  1  0  0  0
 27 22  1  0  0  0
 13  8  1  0  0  0
  3 17  1  0  0  0
M  END
> <minimizedAffinity>
-7.52256

> <CNNscore>
0.4775178432

> <CNNaffinity>
5.7160296440

> <CNN_VS>
2.7295062542

> <CNNaffinity_variance>
0.0967926979

$$$$



 27 31  0  0  0  0  0  0  0  0999 V2000
    8.3161   -5.3776   24.1383 O   0  0  0  0  0  0  0  0  0  0  0  0
    7.7188   -4.1881   24.8297 C   0  0  0  0  0  0  0  0  0  0  0  0
    6.4895   -4.1932   25.6893 N   0  0  0  0  0  0  0  0  0  0  0  0
    6.2567   -2.7928   26.1738 C   0  0  0  0  0  0  0  0  0  0  0  0
    5.2397   -3.7830   26.6586 C   0  0  0  0  0  0  0  0  0  0  0  0
    4.1184   -3.3324   27.5472 C   0  0  0  0  0  0  0  0  0  0  0  0
    4.0141   -1.8916   27.9510 O   0  0  0  0  0  0  0  0  0  0  0  0
    5.0312   -0.9013   27.4662 C   0  0  0  0  0  0  0  0  0  0  0  0
    4.9270    0.5395   27.8701 C   0  0  0  0  0  0  0  0  0  0  0  0
    5.9441    1.5297   27.3853 C   0  0  0  0  0  0  0  0  0  0  0  0
    7.0654    1.0791   26.4967 N   0  0  0  0  0  0  0  0  0  0  0  0
    7.1696   -0.3617   26.0929 C   0  0  0  0  0  0  0  0  0  0  0  0
    6.1525   -1.3519   26.5776 C   0  0  0  0  0  0  0  0  0  0  0  0
    7.3422   -1.9222   25.6137 C   0  0  0  0  0  0  0  0  0  0  0  0
    7.7048   -0.7626   25.6261 O   0  0  0  0  0  0  0  0  0  0  0  0
    8.2458   -2.7845   24.7830 N   0  0  0  0  0  0  0  0  0  0  0  0
    5.9331   -4.9779   25.8987 H   0  0  0  0  0  0  0  0  0  0  0  0
    9.4627   -2.3240   24.0367 C   0  0  0  0  0  0  0  0  0  0  0  0
    9.3311   -1.8027   22.6363 C   0  0  0  0  0  0  0  0  0  0  0  0
   10.5481   -1.3422   21.8900 N   0  0  0  0  0  0  0  0  0  0  0  0
   11.8966   -1.4031   22.5440 C   0  0  0  0  0  0  0  0  0  0  0  0
   12.0282   -1.9244   23.9443 C   0  0  0  0  0  0  0  0  0  0  0  0
   13.3768   -1.9852   24.5984 C   0  0  0  0  0  0  0  0  0  0  0  0
   13.5083   -2.5065   25.9987 C   0  0  0  0  0  0  0  0  0  0  0  0
   12.2914   -2.9669   26.7451 C   0  0  0  0  0  0  0  0  0  0  0  0
   10.9428   -2.9061   26.0910 C   0  0  0  0  0  0  0  0  0  0  0  0
   10.8112   -2.3848   24.6907 C   0  0  0  0  0  0  0  0  0  0  0  0
  1  2  2  0  0  0
  2  3  1  0  0  0
  3  4  1  0  0  0
  4  5  1  0  0  0
  5  6  1  0  0  0
  6  7  1  0  0  0
  7  8  1  0  0  0
  8  9  2  0  0  0
  9 10  1  0  0  0
 10 11  2  0  0  0
 11 12  1  0  0  0
 12 13  2  0  0  0
  4 14  1  0  0  0
 14 15  2  0  0  0
 14 16  1  0  0  0
 16 18  1  0  0  0
 18 19  2  0  0  0
 19 20  1  0  0  0
 20 21  2  0  0  0
 21 22  1  0  0  0
 22 23  2  0  0  0
 23 24  1  0  0  0
 24 25  2  0  0  0
 25 26  1  0  0  0
 26 27  2  0  0  0
 16  2  1  0  0  0
 27 18  1  0  0  0
 13  4  1  0  0  0
 27 22  1  0  0  0
 13  8  1  0  0  0
  3 17  1  0  0  0
M  END
> <minimizedAffinity>
-6.72768

> <CNNscore>
0.4700130224

> <CNNaffinity>
5.7699089050

> <CNN_VS>
2.7119324207

> <CNNaffinity_variance>
0.2706880867

$$$$



 27 31  0  0  0  0  0  0  0  0999 V2000
    6.3016    0.1331   23.4906 O   0  0  0  0  0  0  0  0  0  0  0  0
    7.6597   -0.3192   23.9388 C   0  0  0  0  0  0  0  0  0  0  0  0
    8.9692    0.2952   23.5415 N   0  0  0  0  0  0  0  0  0  0  0  0
   10.0656   -0.4711   24.2201 C   0  0  0  0  0  0  0  0  0  0  0  0
   10.5520    0.6581   23.3609 C   0  0  0  0  0  0  0  0  0  0  0  0
   12.0222    0.9317   23.2434 C   0  0  0  0  0  0  0  0  0  0  0  0
   13.0059    0.0761   23.9851 O   0  0  0  0  0  0  0  0  0  0  0  0
   12.5196   -1.0532   24.8443 C   0  0  0  0  0  0  0  0  0  0  0  0
   13.5033   -1.9089   25.5859 C   0  0  0  0  0  0  0  0  0  0  0  0
   13.0169   -3.0381   26.4451 C   0  0  0  0  0  0  0  0  0  0  0  0
   11.5468   -3.3117   26.5626 N   0  0  0  0  0  0  0  0  0  0  0  0
   10.5630   -2.4561   25.8210 C   0  0  0  0  0  0  0  0  0  0  0  0
   11.0494   -1.3268   24.9618 C   0  0  0  0  0  0  0  0  0  0  0  0
    9.4338   -1.5591   25.0369 C   0  0  0  0  0  0  0  0  0  0  0  0
    9.7489   -2.4696   25.7771 O   0  0  0  0  0  0  0  0  0  0  0  0
    7.9469   -1.4651   24.8631 N   0  0  0  0  0  0  0  0  0  0  0  0
    9.0881    1.0660   22.9407 H   0  0  0  0  0  0  0  0  0  0  0  0
    6.9263   -2.3601   25.5015 C   0  0  0  0  0  0  0  0  0  0  0  0
    6.7376   -3.7607   24.9986 C   0  0  0  0  0  0  0  0  0  0  0  0
    5.7170   -4.6556   25.6370 N   0  0  0  0  0  0  0  0  0  0  0  0
    4.8852   -4.1500   26.7782 C   0  0  0  0  0  0  0  0  0  0  0  0
    5.0739   -2.7494   27.2810 C   0  0  0  0  0  0  0  0  0  0  0  0
    4.2420   -2.2438   28.4223 C   0  0  0  0  0  0  0  0  0  0  0  0
    4.4308   -0.8433   28.9251 C   0  0  0  0  0  0  0  0  0  0  0  0
    5.4514    0.0517   28.2867 C   0  0  0  0  0  0  0  0  0  0  0  0
    6.2832   -0.4539   27.1455 C   0  0  0  0  0  0  0  0  0  0  0  0
    6.0945   -1.8545   26.6427 C   0  0  0  0  0  0  0  0  0  0  0  0
  1  2  2  0  0  0
  2  3  1  0  0  0
  3  4  1  0  0  0
  4  5  1  0  0  0
  5  6  1  0  0  0
  6  7  1  0  0  0
  7  8  1  0  0  0
  8  9  2  0  0  0
  9 10  1  0  0  0
 10 11  2  0  0  0
 11 12  1  0  0  0
 12 13  2  0  0  0
  4 14  1  0  0  0
 14 15  2  0  0  0
 14 16  1  0  0  0
 16 18  1  0  0  0
 18 19  2  0  0  0
 19 20  1  0  0  0
 20 21  2  0  0  0
 21 22  1  0  0  0
 22 23  2  0  0  0
 23 24  1  0  0  0
 24 25  2  0  0  0
 25 26  1  0  0  0
 26 27  2  0  0  0
 16  2  1  0  0  0
 27 18  1  0  0  0
 13  4  1  0  0  0
 27 22  1  0  0  0
 13  8  1  0  0  0
  3 17  1  0  0  0
M  END
> <minimizedAffinity>
-7.03769

> <CNNscore>
0.4093937278

> <CNNaffinity>
5.8111042976

> <CNN_VS>
2.3790297508

> <CNNaffinity_variance>
0.3838212490

$$$$



 27 31  0  0  0  0  0  0  0  0999 V2000
    6.6822    0.3337   18.1600 O   0  0  0  0  0  0  0  0  0  0  0  0
    5.6791    0.7283   19.2031 C   0  0  0  0  0  0  0  0  0  0  0  0
    4.3511    1.3775   18.9484 N   0  0  0  0  0  0  0  0  0  0  0  0
    3.6791    1.5934   20.2719 C   0  0  0  0  0  0  0  0  0  0  0  0
    2.8762    2.0651   19.0960 C   0  0  0  0  0  0  0  0  0  0  0  0
    1.5282    2.6874   19.3093 C   0  0  0  0  0  0  0  0  0  0  0  0
    0.9831    2.8382   20.6986 O   0  0  0  0  0  0  0  0  0  0  0  0
    1.7860    2.3666   21.8746 C   0  0  0  0  0  0  0  0  0  0  0  0
    1.2409    2.5173   23.2639 C   0  0  0  0  0  0  0  0  0  0  0  0
    2.0438    2.0457   24.4398 C   0  0  0  0  0  0  0  0  0  0  0  0
    3.3918    1.4234   24.2265 N   0  0  0  0  0  0  0  0  0  0  0  0
    3.9369    1.2726   22.8372 C   0  0  0  0  0  0  0  0  0  0  0  0
    3.1340    1.7442   21.6613 C   0  0  0  0  0  0  0  0  0  0  0  0
    4.5919    1.0778   21.3447 C   0  0  0  0  0  0  0  0  0  0  0  0
    4.6361    0.9632   22.5536 O   0  0  0  0  0  0  0  0  0  0  0  0
    5.8280    0.5431   20.6842 N   0  0  0  0  0  0  0  0  0  0  0  0
    3.9847    1.6193   18.0671 H   0  0  0  0  0  0  0  0  0  0  0  0
    7.0060   -0.0693   21.3822 C   0  0  0  0  0  0  0  0  0  0  0  0
    8.2704    0.7196   21.5521 C   0  0  0  0  0  0  0  0  0  0  0  0
    9.4485    0.1072   22.2501 N   0  0  0  0  0  0  0  0  0  0  0  0
    9.3621   -1.2941   22.7781 C   0  0  0  0  0  0  0  0  0  0  0  0
    8.0976   -2.0830   22.6082 C   0  0  0  0  0  0  0  0  0  0  0  0
    8.0113   -3.4844   23.1363 C   0  0  0  0  0  0  0  0  0  0  0  0
    6.7468   -4.2732   22.9664 C   0  0  0  0  0  0  0  0  0  0  0  0
    5.5688   -3.6608   22.2684 C   0  0  0  0  0  0  0  0  0  0  0  0
    5.6552   -2.2595   21.7403 C   0  0  0  0  0  0  0  0  0  0  0  0
    6.9196   -1.4706   21.9102 C   0  0  0  0  0  0  0  0  0  0  0  0
  1  2  2  0  0  0
  2  3  1  0  0  0
  3  4  1  0  0  0
  4  5  1  0  0  0
  5  6  1  0  0  0
  6  7  1  0  0  0
  7  8  1  0  0  0
  8  9  2  0  0  0
  9 10  1  0  0  0
 10 11  2  0  0  0
 11 12  1  0  0  0
 12 13  2  0  0  0
  4 14  1  0  0  0
 14 15  2  0  0  0
 14 16  1  0  0  0
 16 18  1  0  0  0
 18 19  2  0  0  0
 19 20  1  0  0  0
 20 21  2  0  0  0
 21 22  1  0  0  0
 22 23  2  0  0  0
 23 24  1  0  0  0
 24 25  2  0  0  0
 25 26  1  0  0  0
 26 27  2  0  0  0
 16  2  1  0  0  0
 27 18  1  0  0  0
 13  4  1  0  0  0
 27 22  1  0  0  0
 13  8  1  0  0  0
  3 17  1  0  0  0
M  END
> <minimizedAffinity>
-6.86059

> <CNNscore>
0.4066813588

> <CNNaffinity>
5.6125841141

> <CNN_VS>
2.2825334072

> <CNNaffinity_variance>
0.1364605725

$$$$
