


 34 39  0  0  0  0  0  0  0  0999 V2000
    7.5200   -3.2250   23.4942 C   0  0  0  0  0  0  0  0  0  0  0  0
    7.7097   -1.9505   22.7262 C   0  0  0  0  0  0  0  0  0  0  0  0
    6.5826   -1.6981   21.7692 C   0  0  0  0  0  0  0  0  0  0  0  0
    6.8620   -0.4098   21.0534 N   0  0  0  0  0  0  0  0  0  0  0  0
    8.1618    0.1339   21.5682 C   0  0  0  0  0  0  0  0  0  0  0  0
    8.8218    1.4065   21.1265 O   0  0  0  0  0  0  0  0  0  0  0  0
    8.6857   -0.8183   22.6020 C   0  0  0  0  0  0  0  0  0  0  0  0
    9.5656    0.3740   22.3691 C   0  0  0  0  0  0  0  0  0  0  0  0
   10.8415    0.5271   23.1428 N   0  0  0  0  0  0  0  0  0  0  0  0
   11.2375   -0.5119   24.1495 C   0  0  0  0  0  0  0  0  0  0  0  0
   12.5133   -0.3588   24.9233 O   0  0  0  0  0  0  0  0  0  0  0  0
   10.3575   -1.7043   24.3825 C   0  0  0  0  0  0  0  0  0  0  0  0
   10.7535   -2.7433   25.3892 C   0  0  0  0  0  0  0  0  0  0  0  0
    9.8736   -3.9356   25.6222 C   0  0  0  0  0  0  0  0  0  0  0  0
    8.5977   -4.0887   24.8484 C   0  0  0  0  0  0  0  0  0  0  0  0
    7.7178   -5.2810   25.0814 F   0  0  0  0  0  0  0  0  0  0  0  0
    8.2018   -3.0497   23.8417 C   0  0  0  0  0  0  0  0  0  0  0  0
    9.0817   -1.8574   23.6088 C   0  0  0  0  0  0  0  0  0  0  0  0
    5.9941    0.2235   20.0067 C   0  0  0  0  0  0  0  0  0  0  0  0
    6.1432   -0.1736   18.5680 C   0  0  0  0  0  0  0  0  0  0  0  0
    5.2753    0.4597   17.5214 N   0  0  0  0  0  0  0  0  0  0  0  0
    4.2582    1.4902   17.9135 C   0  0  0  0  0  0  0  0  0  0  0  0
    4.1091    1.8873   19.3523 C   0  0  0  0  0  0  0  0  0  0  0  0
    3.0920    2.9178   19.7444 C   0  0  0  0  0  0  0  0  0  0  0  0
    2.9429    3.3148   21.1832 C   0  0  0  0  0  0  0  0  0  0  0  0
    3.8109    2.6814   22.2298 C   0  0  0  0  0  0  0  0  0  0  0  0
    4.8279    1.6510   21.8376 C   0  0  0  0  0  0  0  0  0  0  0  0
    4.9770    1.2539   20.3989 C   0  0  0  0  0  0  0  0  0  0  0  0
   11.7214    1.7194   22.9098 C   0  0  0  0  0  0  0  0  0  0  0  0
   11.1397    3.1012   22.9554 C   0  0  0  0  0  0  0  0  0  0  0  0
   11.8981    4.3834   22.7796 N   0  0  0  0  0  0  0  0  0  0  0  0
   10.9245    5.5181   22.9003 C   0  0  0  0  0  0  0  0  0  0  0  0
    9.5643    4.9372   23.1506 C   0  0  0  0  0  0  0  0  0  0  0  0
    9.6973    3.4435   23.1846 O   0  0  0  0  0  0  0  0  0  0  0  0
  2  1  1  0  0  0
  2  3  1  0  0  0
  3  4  1  0  0  0
  4 19  1  0  0  0
 19 20  2  0  0  0
 20 21  1  0  0  0
 21 22  2  0  0  0
 22 23  1  0  0  0
 23 24  2  0  0  0
 24 25  1  0  0  0
 25 26  2  0  0  0
 26 27  1  0  0  0
 27 28  2  0  0  0
  4  5  1  0  0  0
  5  6  2  0  0  0
  5  7  1  0  0  0
  7  8  1  0  0  0
  8  9  1  0  0  0
  9 29  1  0  0  0
 29 30  1  0  0  0
 30 31  2  0  0  0
 31 32  1  0  0  0
 32 33  2  0  0  0
 33 34  1  0  0  0
  9 10  1  0  0  0
 10 11  2  0  0  0
 10 12  1  0  0  0
 12 13  2  0  0  0
 13 14  1  0  0  0
 14 15  2  0  0  0
 15 16  1  0  0  0
 15 17  1  0  0  0
 17 18  2  0  0  0
  7  2  1  0  0  0
 34 30  1  0  0  0
 18 12  1  0  0  0
 28 19  1  0  0  0
 18  7  1  0  0  0
 28 23  1  0  0  0
M  END
> <minimizedAffinity>
-9.32304

> <CNNscore>
0.6168750525

> <CNNaffinity>
6.8118019104

> <CNN_VS>
4.2020306587

> <CNNaffinity_variance>
0.0969629660

$$$$



 34 39  0  0  0  0  0  0  0  0999 V2000
    9.1223   -0.9232   23.6708 C   0  0  0  0  0  0  0  0  0  0  0  0
    7.9668   -1.3224   22.8015 C   0  0  0  0  0  0  0  0  0  0  0  0
    7.5849   -0.2359   21.8405 C   0  0  0  0  0  0  0  0  0  0  0  0
    6.4285   -0.7272   21.0212 N   0  0  0  0  0  0  0  0  0  0  0  0
    6.0957   -2.1173   21.4759 C   0  0  0  0  0  0  0  0  0  0  0  0
    5.0038   -2.9869   20.9267 O   0  0  0  0  0  0  0  0  0  0  0  0
    7.0464   -2.4852   22.5762 C   0  0  0  0  0  0  0  0  0  0  0  0
    6.0578   -3.5617   22.2388 C   0  0  0  0  0  0  0  0  0  0  0  0
    6.0836   -4.8637   22.9831 N   0  0  0  0  0  0  0  0  0  0  0  0
    7.0980   -5.0893   24.0648 C   0  0  0  0  0  0  0  0  0  0  0  0
    7.1238   -6.3914   24.8091 O   0  0  0  0  0  0  0  0  0  0  0  0
    8.0867   -4.0128   24.4022 C   0  0  0  0  0  0  0  0  0  0  0  0
    9.1011   -4.2384   25.4839 C   0  0  0  0  0  0  0  0  0  0  0  0
   10.0897   -3.1620   25.8213 C   0  0  0  0  0  0  0  0  0  0  0  0
   10.0639   -1.8599   25.0770 C   0  0  0  0  0  0  0  0  0  0  0  0
   11.0526   -0.7834   25.4144 F   0  0  0  0  0  0  0  0  0  0  0  0
    9.0495   -1.6343   23.9953 C   0  0  0  0  0  0  0  0  0  0  0  0
    8.0609   -2.7108   23.6579 C   0  0  0  0  0  0  0  0  0  0  0  0
    5.7278    0.0374   19.9374 C   0  0  0  0  0  0  0  0  0  0  0  0
    6.2174   -0.0484   18.5223 C   0  0  0  0  0  0  0  0  0  0  0  0
    5.5168    0.7162   17.4386 N   0  0  0  0  0  0  0  0  0  0  0  0
    4.3265    1.5666   17.7701 C   0  0  0  0  0  0  0  0  0  0  0  0
    3.8369    1.6525   19.1853 C   0  0  0  0  0  0  0  0  0  0  0  0
    2.6465    2.5030   19.5168 C   0  0  0  0  0  0  0  0  0  0  0  0
    2.1569    2.5888   20.9321 C   0  0  0  0  0  0  0  0  0  0  0  0
    2.8576    1.8242   22.0157 C   0  0  0  0  0  0  0  0  0  0  0  0
    4.0479    0.9737   21.6842 C   0  0  0  0  0  0  0  0  0  0  0  0
    4.5375    0.8879   20.2691 C   0  0  0  0  0  0  0  0  0  0  0  0
    5.0949   -5.9402   22.6457 C   0  0  0  0  0  0  0  0  0  0  0  0
    3.8316   -6.0750   23.4431 C   0  0  0  0  0  0  0  0  0  0  0  0
    2.5455   -6.6786   22.9619 N   0  0  0  0  0  0  0  0  0  0  0  0
    1.5516   -6.6065   24.0830 C   0  0  0  0  0  0  0  0  0  0  0  0
    2.2234   -5.9582   25.2572 C   0  0  0  0  0  0  0  0  0  0  0  0
    3.6326   -5.6297   24.8616 O   0  0  0  0  0  0  0  0  0  0  0  0
  2  1  1  0  0  0
  2  3  1  0  0  0
  3  4  1  0  0  0
  4 19  1  0  0  0
 19 20  2  0  0  0
 20 21  1  0  0  0
 21 22  2  0  0  0
 22 23  1  0  0  0
 23 24  2  0  0  0
 24 25  1  0  0  0
 25 26  2  0  0  0
 26 27  1  0  0  0
 27 28  2  0  0  0
  4  5  1  0  0  0
  5  6  2  0  0  0
  5  7  1  0  0  0
  7  8  1  0  0  0
  8  9  1  0  0  0
  9 29  1  0  0  0
 29 30  1  0  0  0
 30 31  2  0  0  0
 31 32  1  0  0  0
 32 33  2  0  0  0
 33 34  1  0  0  0
  9 10  1  0  0  0
 10 11  2  0  0  0
 10 12  1  0  0  0
 12 13  2  0  0  0
 13 14  1  0  0  0
 14 15  2  0  0  0
 15 16  1  0  0  0
 15 17  1  0  0  0
 17 18  2  0  0  0
  7  2  1  0  0  0
 34 30  1  0  0  0
 18 12  1  0  0  0
 28 19  1  0  0  0
 18  7  1  0  0  0
 28 23  1  0  0  0
M  END
> <minimizedAffinity>
-8.27915

> <CNNscore>
0.5790684223

> <CNNaffinity>
6.5302672386

> <CNN_VS>
3.7814714909

> <CNNaffinity_variance>
0.0244790427

$$$$



 34 39  0  0  0  0  0  0  0  0999 V2000
   10.9937   -3.3630   26.1076 C   0  0  0  0  0  0  0  0  0  0  0  0
    9.6138   -2.8763   25.7771 C   0  0  0  0  0  0  0  0  0  0  0  0
    8.5517   -3.7750   26.3377 C   0  0  0  0  0  0  0  0  0  0  0  0
    7.2163   -3.2081   25.9566 N   0  0  0  0  0  0  0  0  0  0  0  0
    7.4531   -1.9591   25.1603 C   0  0  0  0  0  0  0  0  0  0  0  0
    6.3940   -1.0711   24.5774 O   0  0  0  0  0  0  0  0  0  0  0  0
    8.9348   -1.7540   25.0494 C   0  0  0  0  0  0  0  0  0  0  0  0
    8.1198   -0.6986   24.3627 C   0  0  0  0  0  0  0  0  0  0  0  0
    8.8026    0.4305   23.6493 N   0  0  0  0  0  0  0  0  0  0  0  0
   10.3005    0.5042   23.6228 C   0  0  0  0  0  0  0  0  0  0  0  0
   10.9834    1.6333   22.9095 O   0  0  0  0  0  0  0  0  0  0  0  0
   11.1157   -0.5513   24.3096 C   0  0  0  0  0  0  0  0  0  0  0  0
   12.6136   -0.4776   24.2830 C   0  0  0  0  0  0  0  0  0  0  0  0
   13.4287   -1.5330   24.9698 C   0  0  0  0  0  0  0  0  0  0  0  0
   12.7458   -2.6621   25.6831 C   0  0  0  0  0  0  0  0  0  0  0  0
   13.5610   -3.7176   26.3699 F   0  0  0  0  0  0  0  0  0  0  0  0
   11.2479   -2.7358   25.7096 C   0  0  0  0  0  0  0  0  0  0  0  0
   10.4328   -1.6804   25.0229 C   0  0  0  0  0  0  0  0  0  0  0  0
    5.8789   -3.7884   26.3096 C   0  0  0  0  0  0  0  0  0  0  0  0
    5.0950   -4.5468   25.2800 C   0  0  0  0  0  0  0  0  0  0  0  0
    3.7576   -5.1271   25.6330 N   0  0  0  0  0  0  0  0  0  0  0  0
    3.2041   -4.9489   27.0157 C   0  0  0  0  0  0  0  0  0  0  0  0
    3.9881   -4.1904   28.0454 C   0  0  0  0  0  0  0  0  0  0  0  0
    3.4346   -4.0122   29.4281 C   0  0  0  0  0  0  0  0  0  0  0  0
    4.2186   -3.2538   30.4578 C   0  0  0  0  0  0  0  0  0  0  0  0
    5.5559   -2.6736   30.1047 C   0  0  0  0  0  0  0  0  0  0  0  0
    6.1094   -2.8517   28.7220 C   0  0  0  0  0  0  0  0  0  0  0  0
    5.3255   -3.6102   27.6923 C   0  0  0  0  0  0  0  0  0  0  0  0
    7.9875    1.4860   22.9626 C   0  0  0  0  0  0  0  0  0  0  0  0
    7.5859    2.7254   23.7058 C   0  0  0  0  0  0  0  0  0  0  0  0
    6.9136    2.7709   25.0459 N   0  0  0  0  0  0  0  0  0  0  0  0
    6.6983    4.2106   25.4079 C   0  0  0  0  0  0  0  0  0  0  0  0
    7.2376    5.0549   24.2915 C   0  0  0  0  0  0  0  0  0  0  0  0
    7.7862    4.1370   23.2396 O   0  0  0  0  0  0  0  0  0  0  0  0
  2  1  1  0  0  0
  2  3  1  0  0  0
  3  4  1  0  0  0
  4 19  1  0  0  0
 19 20  2  0  0  0
 20 21  1  0  0  0
 21 22  2  0  0  0
 22 23  1  0  0  0
 23 24  2  0  0  0
 24 25  1  0  0  0
 25 26  2  0  0  0
 26 27  1  0  0  0
 27 28  2  0  0  0
  4  5  1  0  0  0
  5  6  2  0  0  0
  5  7  1  0  0  0
  7  8  1  0  0  0
  8  9  1  0  0  0
  9 29  1  0  0  0
 29 30  1  0  0  0
 30 31  2  0  0  0
 31 32  1  0  0  0
 32 33  2  0  0  0
 33 34  1  0  0  0
  9 10  1  0  0  0
 10 11  2  0  0  0
 10 12  1  0  0  0
 12 13  2  0  0  0
 13 14  1  0  0  0
 14 15  2  0  0  0
 15 16  1  0  0  0
 15 17  1  0  0  0
 17 18  2  0  0  0
  7  2  1  0  0  0
 34 30  1  0  0  0
 18 12  1  0  0  0
 28 19  1  0  0  0
 18  7  1  0  0  0
 28 23  1  0  0  0
M  END
> <minimizedAffinity>
-7.85262

> <CNNscore>
0.4826075137

> <CNNaffinity>
6.6429738998

> <CNN_VS>
3.2059490681

> <CNNaffinity_variance>
0.2223487645

$$$$



 34 39  0  0  0  0  0  0  0  0999 V2000
   11.0218    0.0699   22.5213 C   0  0  0  0  0  0  0  0  0  0  0  0
    9.6401   -0.4613   22.2787 C   0  0  0  0  0  0  0  0  0  0  0  0
    8.9229    0.3065   21.2082 C   0  0  0  0  0  0  0  0  0  0  0  0
    7.5596   -0.2961   21.0398 N   0  0  0  0  0  0  0  0  0  0  0  0
    7.4343   -1.4363   22.0063 C   0  0  0  0  0  0  0  0  0  0  0  0
    6.2339   -2.3194   22.1771 O   0  0  0  0  0  0  0  0  0  0  0  0
    8.7201   -1.5385   22.7720 C   0  0  0  0  0  0  0  0  0  0  0  0
    7.6951   -2.5619   23.1617 C   0  0  0  0  0  0  0  0  0  0  0  0
    8.0063   -3.5651   24.2326 N   0  0  0  0  0  0  0  0  0  0  0  0
    9.3425   -3.5448   24.9138 C   0  0  0  0  0  0  0  0  0  0  0  0
    9.6537   -4.5479   25.9847 O   0  0  0  0  0  0  0  0  0  0  0  0
   10.3676   -2.5213   24.5241 C   0  0  0  0  0  0  0  0  0  0  0  0
   11.7038   -2.5010   25.2054 C   0  0  0  0  0  0  0  0  0  0  0  0
   12.7288   -1.4776   24.8157 C   0  0  0  0  0  0  0  0  0  0  0  0
   12.4176   -0.4744   23.7448 C   0  0  0  0  0  0  0  0  0  0  0  0
   13.4427    0.5490   23.3551 F   0  0  0  0  0  0  0  0  0  0  0  0
   11.0814   -0.4947   23.0636 C   0  0  0  0  0  0  0  0  0  0  0  0
   10.0564   -1.5182   23.4532 C   0  0  0  0  0  0  0  0  0  0  0  0
    6.5065    0.1613   20.0745 C   0  0  0  0  0  0  0  0  0  0  0  0
    6.3922   -0.4870   18.7267 C   0  0  0  0  0  0  0  0  0  0  0  0
    5.3391   -0.0297   17.7614 N   0  0  0  0  0  0  0  0  0  0  0  0
    4.4004    1.0760   18.1439 C   0  0  0  0  0  0  0  0  0  0  0  0
    4.5147    1.7243   19.4918 C   0  0  0  0  0  0  0  0  0  0  0  0
    3.5759    2.8300   19.8743 C   0  0  0  0  0  0  0  0  0  0  0  0
    3.6904    3.4782   21.2222 C   0  0  0  0  0  0  0  0  0  0  0  0
    4.7434    3.0208   22.1874 C   0  0  0  0  0  0  0  0  0  0  0  0
    5.6822    1.9152   21.8049 C   0  0  0  0  0  0  0  0  0  0  0  0
    5.5678    1.2669   20.4571 C   0  0  0  0  0  0  0  0  0  0  0  0
    6.9812   -4.5885   24.6222 C   0  0  0  0  0  0  0  0  0  0  0  0
    6.1877   -5.2959   23.5640 C   0  0  0  0  0  0  0  0  0  0  0  0
    4.7314   -5.6471   23.6411 N   0  0  0  0  0  0  0  0  0  0  0  0
    4.3548   -6.3445   22.3676 C   0  0  0  0  0  0  0  0  0  0  0  0
    5.5783   -6.4243   21.5034 C   0  0  0  0  0  0  0  0  0  0  0  0
    6.7110   -5.7762   22.2428 O   0  0  0  0  0  0  0  0  0  0  0  0
  2  1  1  0  0  0
  2  3  1  0  0  0
  3  4  1  0  0  0
  4 19  1  0  0  0
 19 20  2  0  0  0
 20 21  1  0  0  0
 21 22  2  0  0  0
 22 23  1  0  0  0
 23 24  2  0  0  0
 24 25  1  0  0  0
 25 26  2  0  0  0
 26 27  1  0  0  0
 27 28  2  0  0  0
  4  5  1  0  0  0
  5  6  2  0  0  0
  5  7  1  0  0  0
  7  8  1  0  0  0
  8  9  1  0  0  0
  9 29  1  0  0  0
 29 30  1  0  0  0
 30 31  2  0  0  0
 31 32  1  0  0  0
 32 33  2  0  0  0
 33 34  1  0  0  0
  9 10  1  0  0  0
 10 11  2  0  0  0
 10 12  1  0  0  0
 12 13  2  0  0  0
 13 14  1  0  0  0
 14 15  2  0  0  0
 15 16  1  0  0  0
 15 17  1  0  0  0
 17 18  2  0  0  0
  7  2  1  0  0  0
 34 30  1  0  0  0
 18 12  1  0  0  0
 28 19  1  0  0  0
 18  7  1  0  0  0
 28 23  1  0  0  0
M  END
> <minimizedAffinity>
-9.16528

> <CNNscore>
0.4608943462

> <CNNaffinity>
6.6375188828

> <CNN_VS>
3.0591950417

> <CNNaffinity_variance>
0.0913973600

$$$$



 34 39  0  0  0  0  0  0  0  0999 V2000
   10.6430    0.0297   22.7970 C   0  0  0  0  0  0  0  0  0  0  0  0
    9.2067   -0.3355   22.5648 C   0  0  0  0  0  0  0  0  0  0  0  0
    8.6680    0.2760   21.3055 C   0  0  0  0  0  0  0  0  0  0  0  0
    7.2353   -0.1446   21.1621 N   0  0  0  0  0  0  0  0  0  0  0  0
    6.8887   -1.0160   22.3328 C   0  0  0  0  0  0  0  0  0  0  0  0
    5.5573   -1.6569   22.5911 O   0  0  0  0  0  0  0  0  0  0  0  0
    8.1070   -1.1340   23.1997 C   0  0  0  0  0  0  0  0  0  0  0  0
    6.9168   -1.8880   23.7143 C   0  0  0  0  0  0  0  0  0  0  0  0
    7.0178   -2.6675   24.9918 N   0  0  0  0  0  0  0  0  0  0  0  0
    8.3090   -2.6931   25.7548 C   0  0  0  0  0  0  0  0  0  0  0  0
    8.4099   -3.4727   27.0323 O   0  0  0  0  0  0  0  0  0  0  0  0
    9.4993   -1.9391   25.2402 C   0  0  0  0  0  0  0  0  0  0  0  0
   10.7904   -1.9647   26.0032 C   0  0  0  0  0  0  0  0  0  0  0  0
   11.9807   -1.2107   25.4886 C   0  0  0  0  0  0  0  0  0  0  0  0
   11.8797   -0.4311   24.2111 C   0  0  0  0  0  0  0  0  0  0  0  0
   13.0700    0.3229   23.6965 F   0  0  0  0  0  0  0  0  0  0  0  0
   10.5885   -0.4055   23.4481 C   0  0  0  0  0  0  0  0  0  0  0  0
    9.3983   -1.1595   23.9627 C   0  0  0  0  0  0  0  0  0  0  0  0
    6.3115    0.2389   20.0443 C   0  0  0  0  0  0  0  0  0  0  0  0
    6.4566   -0.4047   18.6972 C   0  0  0  0  0  0  0  0  0  0  0  0
    5.5328   -0.0212   17.5794 N   0  0  0  0  0  0  0  0  0  0  0  0
    4.4639    1.0058   17.8087 C   0  0  0  0  0  0  0  0  0  0  0  0
    4.3189    1.6494   19.1558 C   0  0  0  0  0  0  0  0  0  0  0  0
    3.2499    2.6766   19.3851 C   0  0  0  0  0  0  0  0  0  0  0  0
    3.1049    3.3201   20.7323 C   0  0  0  0  0  0  0  0  0  0  0  0
    4.0287    2.9366   21.8500 C   0  0  0  0  0  0  0  0  0  0  0  0
    5.0976    1.9095   21.6207 C   0  0  0  0  0  0  0  0  0  0  0  0
    5.2427    1.2660   20.2737 C   0  0  0  0  0  0  0  0  0  0  0  0
    5.8275   -3.4216   25.5064 C   0  0  0  0  0  0  0  0  0  0  0  0
    5.7019   -4.8934   25.2456 C   0  0  0  0  0  0  0  0  0  0  0  0
    4.5781   -5.7766   25.7004 N   0  0  0  0  0  0  0  0  0  0  0  0
    4.8597   -7.1694   25.2201 C   0  0  0  0  0  0  0  0  0  0  0  0
    6.1577   -7.1471   24.4685 C   0  0  0  0  0  0  0  0  0  0  0  0
    6.6782   -5.7403   24.4843 O   0  0  0  0  0  0  0  0  0  0  0  0
  2  1  1  0  0  0
  2  3  1  0  0  0
  3  4  1  0  0  0
  4 19  1  0  0  0
 19 20  2  0  0  0
 20 21  1  0  0  0
 21 22  2  0  0  0
 22 23  1  0  0  0
 23 24  2  0  0  0
 24 25  1  0  0  0
 25 26  2  0  0  0
 26 27  1  0  0  0
 27 28  2  0  0  0
  4  5  1  0  0  0
  5  6  2  0  0  0
  5  7  1  0  0  0
  7  8  1  0  0  0
  8  9  1  0  0  0
  9 29  1  0  0  0
 29 30  1  0  0  0
 30 31  2  0  0  0
 31 32  1  0  0  0
 32 33  2  0  0  0
 33 34  1  0  0  0
  9 10  1  0  0  0
 10 11  2  0  0  0
 10 12  1  0  0  0
 12 13  2  0  0  0
 13 14  1  0  0  0
 14 15  2  0  0  0
 15 16  1  0  0  0
 15 17  1  0  0  0
 17 18  2  0  0  0
  7  2  1  0  0  0
 34 30  1  0  0  0
 18 12  1  0  0  0
 28 19  1  0  0  0
 18  7  1  0  0  0
 28 23  1  0  0  0
M  END
> <minimizedAffinity>
-9.51021

> <CNNscore>
0.3088488579

> <CNNaffinity>
6.4253473282

> <CNN_VS>
1.9844611883

> <CNNaffinity_variance>
0.1146719903

$$$$



 34 39  0  0  0  0  0  0  0  0999 V2000
    7.1523    0.1256   20.1829 C   0  0  0  0  0  0  0  0  0  0  0  0
    7.5422    0.0820   21.6307 C   0  0  0  0  0  0  0  0  0  0  0  0
    8.9552   -0.3852   21.8182 C   0  0  0  0  0  0  0  0  0  0  0  0
    9.2488   -0.3948   23.2892 N   0  0  0  0  0  0  0  0  0  0  0  0
    8.0173    0.0664   24.0107 C   0  0  0  0  0  0  0  0  0  0  0  0
    7.8670    0.2081   25.4964 O   0  0  0  0  0  0  0  0  0  0  0  0
    6.9625    0.3611   22.9857 C   0  0  0  0  0  0  0  0  0  0  0  0
    6.5217    0.5968   24.3999 C   0  0  0  0  0  0  0  0  0  0  0  0
    5.1314    1.0849   24.6806 N   0  0  0  0  0  0  0  0  0  0  0  0
    4.1819    1.3373   23.5472 C   0  0  0  0  0  0  0  0  0  0  0  0
    2.7916    1.8254   23.8279 O   0  0  0  0  0  0  0  0  0  0  0  0
    4.6227    1.1016   22.1329 C   0  0  0  0  0  0  0  0  0  0  0  0
    3.6733    1.3539   20.9994 C   0  0  0  0  0  0  0  0  0  0  0  0
    4.1142    1.1182   19.5852 C   0  0  0  0  0  0  0  0  0  0  0  0
    5.5045    0.6301   19.3044 C   0  0  0  0  0  0  0  0  0  0  0  0
    5.9453    0.3944   17.8901 F   0  0  0  0  0  0  0  0  0  0  0  0
    6.4539    0.3777   20.4379 C   0  0  0  0  0  0  0  0  0  0  0  0
    6.0131    0.6135   21.8521 C   0  0  0  0  0  0  0  0  0  0  0  0
   10.5462   -0.7954   23.9267 C   0  0  0  0  0  0  0  0  0  0  0  0
   11.7711    0.0471   23.7278 C   0  0  0  0  0  0  0  0  0  0  0  0
   13.0685   -0.3534   24.3653 N   0  0  0  0  0  0  0  0  0  0  0  0
   13.1408   -1.5965   25.2017 C   0  0  0  0  0  0  0  0  0  0  0  0
   11.9158   -2.4390   25.4006 C   0  0  0  0  0  0  0  0  0  0  0  0
   11.9882   -3.6821   26.2370 C   0  0  0  0  0  0  0  0  0  0  0  0
   10.7631   -4.5246   26.4358 C   0  0  0  0  0  0  0  0  0  0  0  0
    9.4659   -4.1240   25.7983 C   0  0  0  0  0  0  0  0  0  0  0  0
    9.3935   -2.8810   24.9619 C   0  0  0  0  0  0  0  0  0  0  0  0
   10.6184   -2.0385   24.7631 C   0  0  0  0  0  0  0  0  0  0  0  0
    4.6905    1.3206   26.0949 C   0  0  0  0  0  0  0  0  0  0  0  0
    4.8367    0.2328   27.1173 C   0  0  0  0  0  0  0  0  0  0  0  0
    5.1783    0.4239   28.5653 N   0  0  0  0  0  0  0  0  0  0  0  0
    5.2198   -0.9279   29.2141 C   0  0  0  0  0  0  0  0  0  0  0  0
    4.9038   -1.9545   28.1670 C   0  0  0  0  0  0  0  0  0  0  0  0
    4.6671   -1.2371   26.8712 O   0  0  0  0  0  0  0  0  0  0  0  0
  2  1  1  0  0  0
  2  3  1  0  0  0
  3  4  1  0  0  0
  4 19  1  0  0  0
 19 20  2  0  0  0
 20 21  1  0  0  0
 21 22  2  0  0  0
 22 23  1  0  0  0
 23 24  2  0  0  0
 24 25  1  0  0  0
 25 26  2  0  0  0
 26 27  1  0  0  0
 27 28  2  0  0  0
  4  5  1  0  0  0
  5  6  2  0  0  0
  5  7  1  0  0  0
  7  8  1  0  0  0
  8  9  1  0  0  0
  9 29  1  0  0  0
 29 30  1  0  0  0
 30 31  2  0  0  0
 31 32  1  0  0  0
 32 33  2  0  0  0
 33 34  1  0  0  0
  9 10  1  0  0  0
 10 11  2  0  0  0
 10 12  1  0  0  0
 12 13  2  0  0  0
 13 14  1  0  0  0
 14 15  2  0  0  0
 15 16  1  0  0  0
 15 17  1  0  0  0
 17 18  2  0  0  0
  7  2  1  0  0  0
 34 30  1  0  0  0
 18 12  1  0  0  0
 28 19  1  0  0  0
 18  7  1  0  0  0
 28 23  1  0  0  0
M  END
> <minimizedAffinity>
-8.22099

> <CNNscore>
0.2880738378

> <CNNaffinity>
6.2390928268

> <CNN_VS>
1.7973194122

> <CNNaffinity_variance>
0.1201191396

$$$$



 34 39  0  0  0  0  0  0  0  0999 V2000
    6.2666    0.0653   19.5096 C   0  0  0  0  0  0  0  0  0  0  0  0
    6.3111   -0.2436   20.9768 C   0  0  0  0  0  0  0  0  0  0  0  0
    7.5143   -1.0613   21.3426 C   0  0  0  0  0  0  0  0  0  0  0  0
    7.4695   -1.3166   22.8200 N   0  0  0  0  0  0  0  0  0  0  0  0
    6.2386   -0.6567   23.3673 C   0  0  0  0  0  0  0  0  0  0  0  0
    5.8006   -0.6595   24.8020 O   0  0  0  0  0  0  0  0  0  0  0  0
    5.5227    0.0064   22.2282 C   0  0  0  0  0  0  0  0  0  0  0  0
    4.8440    0.1737   23.5553 C   0  0  0  0  0  0  0  0  0  0  0  0
    3.5644    0.9505   23.6508 N   0  0  0  0  0  0  0  0  0  0  0  0
    2.9633    1.5600   22.4190 C   0  0  0  0  0  0  0  0  0  0  0  0
    1.6837    2.3367   22.5144 O   0  0  0  0  0  0  0  0  0  0  0  0
    3.6420    1.3927   21.0918 C   0  0  0  0  0  0  0  0  0  0  0  0
    3.0410    2.0022   19.8600 C   0  0  0  0  0  0  0  0  0  0  0  0
    3.7196    1.8349   18.5328 C   0  0  0  0  0  0  0  0  0  0  0  0
    4.9992    1.0581   18.4374 C   0  0  0  0  0  0  0  0  0  0  0  0
    5.6779    0.8909   17.1102 F   0  0  0  0  0  0  0  0  0  0  0  0
    5.6003    0.4486   19.6692 C   0  0  0  0  0  0  0  0  0  0  0  0
    4.9216    0.6159   20.9963 C   0  0  0  0  0  0  0  0  0  0  0  0
    8.4784   -2.0951   23.6113 C   0  0  0  0  0  0  0  0  0  0  0  0
    8.1081   -3.4258   24.1959 C   0  0  0  0  0  0  0  0  0  0  0  0
    9.1170   -4.2043   24.9871 N   0  0  0  0  0  0  0  0  0  0  0  0
   10.4962   -3.6519   25.1937 C   0  0  0  0  0  0  0  0  0  0  0  0
   10.8665   -2.3211   24.6091 C   0  0  0  0  0  0  0  0  0  0  0  0
   12.2458   -1.7687   24.8157 C   0  0  0  0  0  0  0  0  0  0  0  0
   12.6160   -0.4379   24.2310 C   0  0  0  0  0  0  0  0  0  0  0  0
   11.6071    0.3405   23.4398 C   0  0  0  0  0  0  0  0  0  0  0  0
   10.2279   -0.2119   23.2332 C   0  0  0  0  0  0  0  0  0  0  0  0
    9.8576   -1.5426   23.8178 C   0  0  0  0  0  0  0  0  0  0  0  0
    2.8857    1.1177   24.9780 C   0  0  0  0  0  0  0  0  0  0  0  0
    1.7719    0.1938   25.3726 C   0  0  0  0  0  0  0  0  0  0  0  0
    1.8348   -0.8571   26.4410 N   0  0  0  0  0  0  0  0  0  0  0  0
    0.5014   -1.5418   26.4968 C   0  0  0  0  0  0  0  0  0  0  0  0
   -0.3857   -0.9141   25.4627 C   0  0  0  0  0  0  0  0  0  0  0  0
    0.3996    0.1586   24.7680 O   0  0  0  0  0  0  0  0  0  0  0  0
  2  1  1  0  0  0
  2  3  1  0  0  0
  3  4  1  0  0  0
  4 19  1  0  0  0
 19 20  2  0  0  0
 20 21  1  0  0  0
 21 22  2  0  0  0
 22 23  1  0  0  0
 23 24  2  0  0  0
 24 25  1  0  0  0
 25 26  2  0  0  0
 26 27  1  0  0  0
 27 28  2  0  0  0
  4  5  1  0  0  0
  5  6  2  0  0  0
  5  7  1  0  0  0
  7  8  1  0  0  0
  8  9  1  0  0  0
  9 29  1  0  0  0
 29 30  1  0  0  0
 30 31  2  0  0  0
 31 32  1  0  0  0
 32 33  2  0  0  0
 33 34  1  0  0  0
  9 10  1  0  0  0
 10 11  2  0  0  0
 10 12  1  0  0  0
 12 13  2  0  0  0
 13 14  1  0  0  0
 14 15  2  0  0  0
 15 16  1  0  0  0
 15 17  1  0  0  0
 17 18  2  0  0  0
  7  2  1  0  0  0
 34 30  1  0  0  0
 18 12  1  0  0  0
 28 19  1  0  0  0
 18  7  1  0  0  0
 28 23  1  0  0  0
M  END
> <minimizedAffinity>
-7.81188

> <CNNscore>
0.2744486034

> <CNNaffinity>
6.1487207413

> <CNN_VS>
1.6875078678

> <CNNaffinity_variance>
0.1146105155

$$$$



 34 39  0  0  0  0  0  0  0  0999 V2000
   10.7463   -3.7368   25.6328 C   0  0  0  0  0  0  0  0  0  0  0  0
    9.5523   -3.4224   24.7809 C   0  0  0  0  0  0  0  0  0  0  0  0
    8.4928   -4.4789   24.8865 C   0  0  0  0  0  0  0  0  0  0  0  0
    7.3479   -4.0770   24.0047 N   0  0  0  0  0  0  0  0  0  0  0  0
    7.6998   -2.7720   23.3542 C   0  0  0  0  0  0  0  0  0  0  0  0
    6.8401   -2.0060   22.3928 O   0  0  0  0  0  0  0  0  0  0  0  0
    9.0622   -2.3674   23.8339 C   0  0  0  0  0  0  0  0  0  0  0  0
    8.4417   -1.3985   22.8715 C   0  0  0  0  0  0  0  0  0  0  0  0
    9.1837   -0.1570   22.4740 N   0  0  0  0  0  0  0  0  0  0  0  0
   10.5462    0.1157   23.0389 C   0  0  0  0  0  0  0  0  0  0  0  0
   11.2882    1.3572   22.6414 O   0  0  0  0  0  0  0  0  0  0  0  0
   11.1668   -0.8532   24.0013 C   0  0  0  0  0  0  0  0  0  0  0  0
   12.5294   -0.5805   24.5661 C   0  0  0  0  0  0  0  0  0  0  0  0
   13.1499   -1.5494   25.5285 C   0  0  0  0  0  0  0  0  0  0  0  0
   12.4079   -2.7910   25.9260 C   0  0  0  0  0  0  0  0  0  0  0  0
   13.0285   -3.7599   26.8884 F   0  0  0  0  0  0  0  0  0  0  0  0
   11.0453   -3.0636   25.3612 C   0  0  0  0  0  0  0  0  0  0  0  0
   10.4248   -2.0948   24.3988 C   0  0  0  0  0  0  0  0  0  0  0  0
    6.0746   -4.8451   23.8080 C   0  0  0  0  0  0  0  0  0  0  0  0
    5.8048   -5.5273   22.4997 C   0  0  0  0  0  0  0  0  0  0  0  0
    4.5315   -6.2954   22.3030 N   0  0  0  0  0  0  0  0  0  0  0  0
    3.5281   -6.3813   23.4146 C   0  0  0  0  0  0  0  0  0  0  0  0
    3.7979   -5.6991   24.7230 C   0  0  0  0  0  0  0  0  0  0  0  0
    2.7944   -5.7850   25.8347 C   0  0  0  0  0  0  0  0  0  0  0  0
    3.0643   -5.1027   27.1430 C   0  0  0  0  0  0  0  0  0  0  0  0
    4.3376   -4.3346   27.3396 C   0  0  0  0  0  0  0  0  0  0  0  0
    5.3410   -4.2487   26.2280 C   0  0  0  0  0  0  0  0  0  0  0  0
    5.0712   -4.9309   24.9197 C   0  0  0  0  0  0  0  0  0  0  0  0
    8.5631    0.8119   21.5116 C   0  0  0  0  0  0  0  0  0  0  0  0
    7.9273    2.0715   22.0207 C   0  0  0  0  0  0  0  0  0  0  0  0
    6.6594    2.6883   21.5089 N   0  0  0  0  0  0  0  0  0  0  0  0
    6.3963    3.9335   22.3028 C   0  0  0  0  0  0  0  0  0  0  0  0
    7.5016    4.0863   23.3053 C   0  0  0  0  0  0  0  0  0  0  0  0
    8.4478    2.9355   23.1309 O   0  0  0  0  0  0  0  0  0  0  0  0
  2  1  1  0  0  0
  2  3  1  0  0  0
  3  4  1  0  0  0
  4 19  1  0  0  0
 19 20  2  0  0  0
 20 21  1  0  0  0
 21 22  2  0  0  0
 22 23  1  0  0  0
 23 24  2  0  0  0
 24 25  1  0  0  0
 25 26  2  0  0  0
 26 27  1  0  0  0
 27 28  2  0  0  0
  4  5  1  0  0  0
  5  6  2  0  0  0
  5  7  1  0  0  0
  7  8  1  0  0  0
  8  9  1  0  0  0
  9 29  1  0  0  0
 29 30  1  0  0  0
 30 31  2  0  0  0
 31 32  1  0  0  0
 32 33  2  0  0  0
 33 34  1  0  0  0
  9 10  1  0  0  0
 10 11  2  0  0  0
 10 12  1  0  0  0
 12 13  2  0  0  0
 13 14  1  0  0  0
 14 15  2  0  0  0
 15 16  1  0  0  0
 15 17  1  0  0  0
 17 18  2  0  0  0
  7  2  1  0  0  0
 34 30  1  0  0  0
 18 12  1  0  0  0
 28 19  1  0  0  0
 18  7  1  0  0  0
 28 23  1  0  0  0
M  END
> <minimizedAffinity>
-8.58971

> <CNNscore>
0.2670588791

> <CNNaffinity>
6.3736357689

> <CNN_VS>
1.7021360397

> <CNNaffinity_variance>
0.1737624109

$$$$



 34 39  0  0  0  0  0  0  0  0999 V2000
   11.0879   -2.7695   24.8353 C   0  0  0  0  0  0  0  0  0  0  0  0
    9.6126   -2.5731   24.6484 C   0  0  0  0  0  0  0  0  0  0  0  0
    8.8163   -3.6966   25.2430 C   0  0  0  0  0  0  0  0  0  0  0  0
    7.3629   -3.4106   25.0065 N   0  0  0  0  0  0  0  0  0  0  0  0
    7.2610   -2.1103   24.2657 C   0  0  0  0  0  0  0  0  0  0  0  0
    5.9916   -1.4445   23.8238 O   0  0  0  0  0  0  0  0  0  0  0  0
    8.6514   -1.5926   24.0443 C   0  0  0  0  0  0  0  0  0  0  0  0
    7.5753   -0.7078   23.4885 C   0  0  0  0  0  0  0  0  0  0  0  0
    7.9403    0.5665   22.7864 N   0  0  0  0  0  0  0  0  0  0  0  0
    9.3814    0.9560   22.6402 C   0  0  0  0  0  0  0  0  0  0  0  0
    9.7465    2.2303   21.9381 O   0  0  0  0  0  0  0  0  0  0  0  0
   10.4576    0.0711   23.1961 C   0  0  0  0  0  0  0  0  0  0  0  0
   11.8987    0.4605   23.0498 C   0  0  0  0  0  0  0  0  0  0  0  0
   12.9748   -0.4243   23.6057 C   0  0  0  0  0  0  0  0  0  0  0  0
   12.6098   -1.6986   24.3077 C   0  0  0  0  0  0  0  0  0  0  0  0
   13.6860   -2.5835   24.8636 F   0  0  0  0  0  0  0  0  0  0  0  0
   11.1687   -2.0881   24.4540 C   0  0  0  0  0  0  0  0  0  0  0  0
   10.0926   -1.2032   23.8981 C   0  0  0  0  0  0  0  0  0  0  0  0
    6.2134   -4.2734   25.4355 C   0  0  0  0  0  0  0  0  0  0  0  0
    5.6426   -5.2874   24.4890 C   0  0  0  0  0  0  0  0  0  0  0  0
    4.4930   -6.1502   24.9180 N   0  0  0  0  0  0  0  0  0  0  0  0
    3.9142   -5.9989   26.2935 C   0  0  0  0  0  0  0  0  0  0  0  0
    4.4850   -4.9848   27.2400 C   0  0  0  0  0  0  0  0  0  0  0  0
    3.9060   -4.8335   28.6156 C   0  0  0  0  0  0  0  0  0  0  0  0
    4.4769   -3.8194   29.5620 C   0  0  0  0  0  0  0  0  0  0  0  0
    5.6264   -2.9567   29.1330 C   0  0  0  0  0  0  0  0  0  0  0  0
    6.2053   -3.1080   27.7575 C   0  0  0  0  0  0  0  0  0  0  0  0
    5.6346   -4.1220   26.8110 C   0  0  0  0  0  0  0  0  0  0  0  0
    6.8641    1.4514   22.2306 C   0  0  0  0  0  0  0  0  0  0  0  0
    6.2706    1.1557   20.8851 C   0  0  0  0  0  0  0  0  0  0  0  0
    4.8580    1.4338   20.4643 N   0  0  0  0  0  0  0  0  0  0  0  0
    4.6998    0.9801   19.0433 C   0  0  0  0  0  0  0  0  0  0  0  0
    6.0147    0.4215   18.5860 C   0  0  0  0  0  0  0  0  0  0  0  0
    6.9855    0.5301   19.7243 O   0  0  0  0  0  0  0  0  0  0  0  0
  2  1  1  0  0  0
  2  3  1  0  0  0
  3  4  1  0  0  0
  4 19  1  0  0  0
 19 20  2  0  0  0
 20 21  1  0  0  0
 21 22  2  0  0  0
 22 23  1  0  0  0
 23 24  2  0  0  0
 24 25  1  0  0  0
 25 26  2  0  0  0
 26 27  1  0  0  0
 27 28  2  0  0  0
  4  5  1  0  0  0
  5  6  2  0  0  0
  5  7  1  0  0  0
  7  8  1  0  0  0
  8  9  1  0  0  0
  9 29  1  0  0  0
 29 30  1  0  0  0
 30 31  2  0  0  0
 31 32  1  0  0  0
 32 33  2  0  0  0
 33 34  1  0  0  0
  9 10  1  0  0  0
 10 11  2  0  0  0
 10 12  1  0  0  0
 12 13  2  0  0  0
 13 14  1  0  0  0
 14 15  2  0  0  0
 15 16  1  0  0  0
 15 17  1  0  0  0
 17 18  2  0  0  0
  7  2  1  0  0  0
 34 30  1  0  0  0
 18 12  1  0  0  0
 28 19  1  0  0  0
 18  7  1  0  0  0
 28 23  1  0  0  0
M  END
> <minimizedAffinity>
-8.60973

> <CNNscore>
0.2509632707

> <CNNaffinity>
6.3901314735

> <CNN_VS>
1.6036882401

> <CNNaffinity_variance>
0.1332007945

$$$$
