


 37 42  0  0  0  0  0  0  0  0999 V2000
    7.5893   -3.2451   23.4871 C   0  0  0  0  0  0  0  0  0  0  0  0
    7.7677   -1.9603   22.7338 C   0  0  0  0  0  0  0  0  0  0  0  0
    6.6414   -1.7100   21.7752 C   0  0  0  0  0  0  0  0  0  0  0  0
    6.9092   -0.4109   21.0746 N   0  0  0  0  0  0  0  0  0  0  0  0
    8.2009    0.1415   21.6002 C   0  0  0  0  0  0  0  0  0  0  0  0
    8.8483    1.4261   21.1750 O   0  0  0  0  0  0  0  0  0  0  0  0
    8.7315   -0.8160   22.6257 C   0  0  0  0  0  0  0  0  0  0  0  0
    9.5990    0.3884   22.4091 C   0  0  0  0  0  0  0  0  0  0  0  0
   10.8702    0.5472   23.1893 N   0  0  0  0  0  0  0  0  0  0  0  0
   11.2739   -0.4983   24.1862 C   0  0  0  0  0  0  0  0  0  0  0  0
   12.5451   -0.3395   24.9664 O   0  0  0  0  0  0  0  0  0  0  0  0
   10.4065   -1.7028   24.4028 C   0  0  0  0  0  0  0  0  0  0  0  0
   10.8102   -2.7484   25.3997 C   0  0  0  0  0  0  0  0  0  0  0  0
    9.9428   -3.9527   25.6162 C   0  0  0  0  0  0  0  0  0  0  0  0
    8.6716   -4.1116   24.8360 C   0  0  0  0  0  0  0  0  0  0  0  0
    7.8041   -5.3160   25.0526 F   0  0  0  0  0  0  0  0  0  0  0  0
    8.2678   -3.0660   23.8391 C   0  0  0  0  0  0  0  0  0  0  0  0
    9.1353   -1.8616   23.6226 C   0  0  0  0  0  0  0  0  0  0  0  0
    6.0381    0.2242   20.0316 C   0  0  0  0  0  0  0  0  0  0  0  0
    6.2603   -0.0832   18.5804 C   0  0  0  0  0  0  0  0  0  0  0  0
    5.3892    0.5519   17.5374 N   0  0  0  0  0  0  0  0  0  0  0  0
    4.2960    1.4943   17.9456 C   0  0  0  0  0  0  0  0  0  0  0  0
    4.0738    1.8017   19.3969 C   0  0  0  0  0  0  0  0  0  0  0  0
    2.9805    2.7442   19.8051 C   0  0  0  0  0  0  0  0  0  0  0  0
    2.7584    3.0514   21.2564 C   0  0  0  0  0  0  0  0  0  0  0  0
    3.6295    2.4163   22.2994 C   0  0  0  0  0  0  0  0  0  0  0  0
    4.7227    1.4739   21.8911 C   0  0  0  0  0  0  0  0  0  0  0  0
    4.9449    1.1666   20.4400 C   0  0  0  0  0  0  0  0  0  0  0  0
   11.7376    1.7517   22.9727 C   0  0  0  0  0  0  0  0  0  0  0  0
   11.1141    3.0756   22.6434 C   0  0  0  0  0  0  0  0  0  0  0  0
   11.7055    3.9361   21.5665 O   0  0  0  0  0  0  0  0  0  0  0  0
    9.8991    3.5390   23.3911 N   0  0  0  0  0  0  0  0  0  0  0  0
    9.5110    2.9742   24.0979 H   0  0  0  0  0  0  0  0  0  0  0  0
    9.2755    4.8630   23.0619 C   0  0  0  0  0  0  0  0  0  0  0  0
   10.1104    6.1090   23.0743 C   0  0  0  0  0  0  0  0  0  0  0  0
   10.5958    7.3405   23.7798 C   0  0  0  0  0  0  0  0  0  0  0  0
   11.0712    7.0358   22.3901 C   0  0  0  0  0  0  0  0  0  0  0  0
  2  1  1  0  0  0
  2  3  1  0  0  0
  3  4  1  0  0  0
  4 19  1  0  0  0
 19 20  2  0  0  0
 20 21  1  0  0  0
 21 22  2  0  0  0
 22 23  1  0  0  0
 23 24  2  0  0  0
 24 25  1  0  0  0
 25 26  2  0  0  0
 26 27  1  0  0  0
 27 28  2  0  0  0
  4  5  1  0  0  0
  5  6  2  0  0  0
  5  7  1  0  0  0
  7  8  1  0  0  0
  8  9  1  0  0  0
  9 29  1  0  0  0
 29 30  1  0  0  0
 30 31  2  0  0  0
 30 32  1  0  0  0
 32 34  1  0  0  0
 34 35  1  0  0  0
 35 36  1  0  0  0
 36 37  1  0  0  0
  9 10  1  0  0  0
 10 11  2  0  0  0
 10 12  1  0  0  0
 12 13  2  0  0  0
 13 14  1  0  0  0
 14 15  2  0  0  0
 15 16  1  0  0  0
 15 17  1  0  0  0
 17 18  2  0  0  0
  7  2  1  0  0  0
 37 35  1  0  0  0
 18 12  1  0  0  0
 28 19  1  0  0  0
 18  7  1  0  0  0
 28 23  1  0  0  0
 32 33  1  0  0  0
M  END
> <minimizedAffinity>
-9.38215

> <CNNscore>
0.6198414564

> <CNNaffinity>
7.0288658142

> <CNN_VS>
4.3567824364

> <CNNaffinity_variance>
0.0195493437

$$$$



 37 42  0  0  0  0  0  0  0  0999 V2000
   10.9239   -3.2836   26.1337 C   0  0  0  0  0  0  0  0  0  0  0  0
    9.5419   -2.7928   25.8187 C   0  0  0  0  0  0  0  0  0  0  0  0
    8.4835   -3.6793   26.4053 C   0  0  0  0  0  0  0  0  0  0  0  0
    7.1456   -3.1092   26.0381 N   0  0  0  0  0  0  0  0  0  0  0  0
    7.3770   -1.8704   25.2246 C   0  0  0  0  0  0  0  0  0  0  0  0
    6.3141   -0.9829   24.6479 O   0  0  0  0  0  0  0  0  0  0  0  0
    8.8580   -1.6748   25.0890 C   0  0  0  0  0  0  0  0  0  0  0  0
    8.0384   -0.6224   24.4030 C   0  0  0  0  0  0  0  0  0  0  0  0
    8.7165    0.4949   23.6670 N   0  0  0  0  0  0  0  0  0  0  0  0
   10.2142    0.5599   23.6170 C   0  0  0  0  0  0  0  0  0  0  0  0
   10.8923    1.6773   22.8809 O   0  0  0  0  0  0  0  0  0  0  0  0
   11.0339   -0.4925   24.3030 C   0  0  0  0  0  0  0  0  0  0  0  0
   12.5316   -0.4275   24.2530 C   0  0  0  0  0  0  0  0  0  0  0  0
   13.3513   -1.4799   24.9390 C   0  0  0  0  0  0  0  0  0  0  0  0
   12.6732   -2.5972   25.6750 C   0  0  0  0  0  0  0  0  0  0  0  0
   13.4929   -3.6497   26.3610 F   0  0  0  0  0  0  0  0  0  0  0  0
   11.1755   -2.6622   25.7250 C   0  0  0  0  0  0  0  0  0  0  0  0
   10.3558   -1.6098   25.0390 C   0  0  0  0  0  0  0  0  0  0  0  0
    5.8105   -3.6780   26.4177 C   0  0  0  0  0  0  0  0  0  0  0  0
    5.0108   -4.4504   25.4110 C   0  0  0  0  0  0  0  0  0  0  0  0
    3.6757   -5.0193   25.7906 N   0  0  0  0  0  0  0  0  0  0  0  0
    3.1405   -4.8156   27.1770 C   0  0  0  0  0  0  0  0  0  0  0  0
    3.9404   -4.0432   28.1837 C   0  0  0  0  0  0  0  0  0  0  0  0
    3.4051   -3.8395   29.5702 C   0  0  0  0  0  0  0  0  0  0  0  0
    4.2050   -3.0671   30.5769 C   0  0  0  0  0  0  0  0  0  0  0  0
    5.5400   -2.4983   30.1972 C   0  0  0  0  0  0  0  0  0  0  0  0
    6.0752   -2.7019   28.8108 C   0  0  0  0  0  0  0  0  0  0  0  0
    5.2754   -3.4743   27.8041 C   0  0  0  0  0  0  0  0  0  0  0  0
    7.8967    1.5474   22.9810 C   0  0  0  0  0  0  0  0  0  0  0  0
    7.8755    2.9485   23.5159 C   0  0  0  0  0  0  0  0  0  0  0  0
    6.9965    3.2932   24.6814 O   0  0  0  0  0  0  0  0  0  0  0  0
    8.7334    4.0051   22.8852 N   0  0  0  0  0  0  0  0  0  0  0  0
    9.3103    3.7789   22.1202 H   0  0  0  0  0  0  0  0  0  0  0  0
    8.7122    5.4064   23.4202 C   0  0  0  0  0  0  0  0  0  0  0  0
    9.8519    6.3373   23.1298 C   0  0  0  0  0  0  0  0  0  0  0  0
   10.6722    7.5394   23.4931 C   0  0  0  0  0  0  0  0  0  0  0  0
   11.0057    6.7476   22.2635 C   0  0  0  0  0  0  0  0  0  0  0  0
  2  1  1  0  0  0
  2  3  1  0  0  0
  3  4  1  0  0  0
  4 19  1  0  0  0
 19 20  2  0  0  0
 20 21  1  0  0  0
 21 22  2  0  0  0
 22 23  1  0  0  0
 23 24  2  0  0  0
 24 25  1  0  0  0
 25 26  2  0  0  0
 26 27  1  0  0  0
 27 28  2  0  0  0
  4  5  1  0  0  0
  5  6  2  0  0  0
  5  7  1  0  0  0
  7  8  1  0  0  0
  8  9  1  0  0  0
  9 29  1  0  0  0
 29 30  1  0  0  0
 30 31  2  0  0  0
 30 32  1  0  0  0
 32 34  1  0  0  0
 34 35  1  0  0  0
 35 36  1  0  0  0
 36 37  1  0  0  0
  9 10  1  0  0  0
 10 11  2  0  0  0
 10 12  1  0  0  0
 12 13  2  0  0  0
 13 14  1  0  0  0
 14 15  2  0  0  0
 15 16  1  0  0  0
 15 17  1  0  0  0
 17 18  2  0  0  0
  7  2  1  0  0  0
 37 35  1  0  0  0
 18 12  1  0  0  0
 28 19  1  0  0  0
 18  7  1  0  0  0
 28 23  1  0  0  0
 32 33  1  0  0  0
M  END
> <minimizedAffinity>
-8.07121

> <CNNscore>
0.5949048400

> <CNNaffinity>
6.8697814941

> <CNN_VS>
4.0868663788

> <CNNaffinity_variance>
0.1467323154

$$$$



 37 42  0  0  0  0  0  0  0  0999 V2000
   10.8726   -3.1975   26.3807 C   0  0  0  0  0  0  0  0  0  0  0  0
    9.4531   -2.8198   26.0768 C   0  0  0  0  0  0  0  0  0  0  0  0
    8.4719   -3.7163   26.7722 C   0  0  0  0  0  0  0  0  0  0  0  0
    7.0897   -3.2614   26.4081 N   0  0  0  0  0  0  0  0  0  0  0  0
    7.2167   -2.0838   25.4877 C   0  0  0  0  0  0  0  0  0  0  0  0
    6.0821   -1.3143   24.8790 O   0  0  0  0  0  0  0  0  0  0  0  0
    8.6773   -1.8108   25.2829 C   0  0  0  0  0  0  0  0  0  0  0  0
    7.7716   -0.8717   24.5429 C   0  0  0  0  0  0  0  0  0  0  0  0
    8.3542    0.2187   23.6935 N   0  0  0  0  0  0  0  0  0  0  0  0
    9.8425    0.3700   23.5840 C   0  0  0  0  0  0  0  0  0  0  0  0
   10.4250    1.4604   22.7345 O   0  0  0  0  0  0  0  0  0  0  0  0
   10.7483   -0.5691   24.3240 C   0  0  0  0  0  0  0  0  0  0  0  0
   12.2366   -0.4178   24.2146 C   0  0  0  0  0  0  0  0  0  0  0  0
   13.1423   -1.3570   24.9546 C   0  0  0  0  0  0  0  0  0  0  0  0
   12.5597   -2.4474   25.8041 C   0  0  0  0  0  0  0  0  0  0  0  0
   13.4655   -3.3865   26.5441 F   0  0  0  0  0  0  0  0  0  0  0  0
   11.0714   -2.5987   25.9135 C   0  0  0  0  0  0  0  0  0  0  0  0
   10.1657   -1.6596   25.1735 C   0  0  0  0  0  0  0  0  0  0  0  0
    5.8059   -3.8762   26.8813 C   0  0  0  0  0  0  0  0  0  0  0  0
    5.0747   -4.8516   26.0075 C   0  0  0  0  0  0  0  0  0  0  0  0
    3.7909   -5.4664   26.4808 N   0  0  0  0  0  0  0  0  0  0  0  0
    3.2384   -5.1057   27.8278 C   0  0  0  0  0  0  0  0  0  0  0  0
    3.9697   -4.1302   28.7017 C   0  0  0  0  0  0  0  0  0  0  0  0
    3.4172   -3.7695   30.0488 C   0  0  0  0  0  0  0  0  0  0  0  0
    4.1486   -2.7940   30.9226 C   0  0  0  0  0  0  0  0  0  0  0  0
    5.4323   -2.1793   30.4493 C   0  0  0  0  0  0  0  0  0  0  0  0
    5.9848   -2.5400   29.1023 C   0  0  0  0  0  0  0  0  0  0  0  0
    5.2535   -3.5154   28.2285 C   0  0  0  0  0  0  0  0  0  0  0  0
    7.4483    1.1579   22.9534 C   0  0  0  0  0  0  0  0  0  0  0  0
    6.8889    0.7643   21.6185 C   0  0  0  0  0  0  0  0  0  0  0  0
    7.4574    1.3563   20.3630 O   0  0  0  0  0  0  0  0  0  0  0  0
    5.7610   -0.2213   21.5391 N   0  0  0  0  0  0  0  0  0  0  0  0
    5.3879   -0.6099   22.3631 H   0  0  0  0  0  0  0  0  0  0  0  0
    5.2015   -0.6149   20.2041 C   0  0  0  0  0  0  0  0  0  0  0  0
    4.8006    0.4417   19.2178 C   0  0  0  0  0  0  0  0  0  0  0  0
    4.0491    1.6990   18.8947 C   0  0  0  0  0  0  0  0  0  0  0  0
    4.8577    1.0146   17.8327 C   0  0  0  0  0  0  0  0  0  0  0  0
  2  1  1  0  0  0
  2  3  1  0  0  0
  3  4  1  0  0  0
  4 19  1  0  0  0
 19 20  2  0  0  0
 20 21  1  0  0  0
 21 22  2  0  0  0
 22 23  1  0  0  0
 23 24  2  0  0  0
 24 25  1  0  0  0
 25 26  2  0  0  0
 26 27  1  0  0  0
 27 28  2  0  0  0
  4  5  1  0  0  0
  5  6  2  0  0  0
  5  7  1  0  0  0
  7  8  1  0  0  0
  8  9  1  0  0  0
  9 29  1  0  0  0
 29 30  1  0  0  0
 30 31  2  0  0  0
 30 32  1  0  0  0
 32 34  1  0  0  0
 34 35  1  0  0  0
 35 36  1  0  0  0
 36 37  1  0  0  0
  9 10  1  0  0  0
 10 11  2  0  0  0
 10 12  1  0  0  0
 12 13  2  0  0  0
 13 14  1  0  0  0
 14 15  2  0  0  0
 15 16  1  0  0  0
 15 17  1  0  0  0
 17 18  2  0  0  0
  7  2  1  0  0  0
 37 35  1  0  0  0
 18 12  1  0  0  0
 28 19  1  0  0  0
 18  7  1  0  0  0
 28 23  1  0  0  0
 32 33  1  0  0  0
M  END
> <minimizedAffinity>
-8.65535

> <CNNscore>
0.5334138274

> <CNNaffinity>
6.7287015915

> <CNN_VS>
3.5891823769

> <CNNaffinity_variance>
0.1243692487

$$$$



 37 42  0  0  0  0  0  0  0  0999 V2000
   10.7017   -3.6691   25.4893 C   0  0  0  0  0  0  0  0  0  0  0  0
    9.4813   -3.3372   24.6827 C   0  0  0  0  0  0  0  0  0  0  0  0
    8.4323   -4.4045   24.7857 C   0  0  0  0  0  0  0  0  0  0  0  0
    7.2594   -3.9839   23.9506 N   0  0  0  0  0  0  0  0  0  0  0  0
    7.5835   -2.6566   23.3315 C   0  0  0  0  0  0  0  0  0  0  0  0
    6.6911   -1.8675   22.4199 O   0  0  0  0  0  0  0  0  0  0  0  0
    8.9567   -2.2569   23.7839 C   0  0  0  0  0  0  0  0  0  0  0  0
    8.3019   -1.2632   22.8709 C   0  0  0  0  0  0  0  0  0  0  0  0
    9.0237   -0.0043   22.4912 N   0  0  0  0  0  0  0  0  0  0  0  0
   10.4004    0.2608   23.0245 C   0  0  0  0  0  0  0  0  0  0  0  0
   11.1222    1.5197   22.6448 O   0  0  0  0  0  0  0  0  0  0  0  0
   11.0552   -0.7329   23.9376 C   0  0  0  0  0  0  0  0  0  0  0  0
   12.4319   -0.4678   24.4710 C   0  0  0  0  0  0  0  0  0  0  0  0
   13.0867   -1.4615   25.3840 C   0  0  0  0  0  0  0  0  0  0  0  0
   12.3648   -2.7204   25.7637 C   0  0  0  0  0  0  0  0  0  0  0  0
   13.0197   -3.7142   26.6768 F   0  0  0  0  0  0  0  0  0  0  0  0
   10.9882   -2.9855   25.2303 C   0  0  0  0  0  0  0  0  0  0  0  0
   10.3334   -1.9918   24.3173 C   0  0  0  0  0  0  0  0  0  0  0  0
    5.9860   -4.7550   23.7669 C   0  0  0  0  0  0  0  0  0  0  0  0
    5.6658   -5.3680   22.4360 C   0  0  0  0  0  0  0  0  0  0  0  0
    4.3924   -6.1392   22.2523 N   0  0  0  0  0  0  0  0  0  0  0  0
    3.4393   -6.2973   23.3996 C   0  0  0  0  0  0  0  0  0  0  0  0
    3.7595   -5.6843   24.7307 C   0  0  0  0  0  0  0  0  0  0  0  0
    2.8063   -5.8425   25.8781 C   0  0  0  0  0  0  0  0  0  0  0  0
    3.1266   -5.2294   27.2091 C   0  0  0  0  0  0  0  0  0  0  0  0
    4.3999   -4.4583   27.3927 C   0  0  0  0  0  0  0  0  0  0  0  0
    5.3531   -4.3002   26.2453 C   0  0  0  0  0  0  0  0  0  0  0  0
    5.0329   -4.9131   24.9144 C   0  0  0  0  0  0  0  0  0  0  0  0
    8.3689    0.9894   21.5781 C   0  0  0  0  0  0  0  0  0  0  0  0
    7.0958    0.6320   20.8699 C   0  0  0  0  0  0  0  0  0  0  0  0
    7.1428    0.0752   19.4779 O   0  0  0  0  0  0  0  0  0  0  0  0
    5.7758    0.8312   21.5538 N   0  0  0  0  0  0  0  0  0  0  0  0
    5.7450    1.1966   22.4675 H   0  0  0  0  0  0  0  0  0  0  0  0
    4.5027    0.4737   20.8457 C   0  0  0  0  0  0  0  0  0  0  0  0
    4.0689    1.2562   19.6417 C   0  0  0  0  0  0  0  0  0  0  0  0
    4.1787    1.5504   18.1750 C   0  0  0  0  0  0  0  0  0  0  0  0
    3.2080    2.3174   19.0231 C   0  0  0  0  0  0  0  0  0  0  0  0
  2  1  1  0  0  0
  2  3  1  0  0  0
  3  4  1  0  0  0
  4 19  1  0  0  0
 19 20  2  0  0  0
 20 21  1  0  0  0
 21 22  2  0  0  0
 22 23  1  0  0  0
 23 24  2  0  0  0
 24 25  1  0  0  0
 25 26  2  0  0  0
 26 27  1  0  0  0
 27 28  2  0  0  0
  4  5  1  0  0  0
  5  6  2  0  0  0
  5  7  1  0  0  0
  7  8  1  0  0  0
  8  9  1  0  0  0
  9 29  1  0  0  0
 29 30  1  0  0  0
 30 31  2  0  0  0
 30 32  1  0  0  0
 32 34  1  0  0  0
 34 35  1  0  0  0
 35 36  1  0  0  0
 36 37  1  0  0  0
  9 10  1  0  0  0
 10 11  2  0  0  0
 10 12  1  0  0  0
 12 13  2  0  0  0
 13 14  1  0  0  0
 14 15  2  0  0  0
 15 16  1  0  0  0
 15 17  1  0  0  0
 17 18  2  0  0  0
  7  2  1  0  0  0
 37 35  1  0  0  0
 18 12  1  0  0  0
 28 19  1  0  0  0
 18  7  1  0  0  0
 28 23  1  0  0  0
 32 33  1  0  0  0
M  END
> <minimizedAffinity>
-9.24846

> <CNNscore>
0.4544632733

> <CNNaffinity>
6.6825194359

> <CNN_VS>
3.0369596481

> <CNNaffinity_variance>
0.0611499064

$$$$



 37 42  0  0  0  0  0  0  0  0999 V2000
    7.0141   -0.6072   25.9420 C   0  0  0  0  0  0  0  0  0  0  0  0
    7.1217    0.1860   24.6735 C   0  0  0  0  0  0  0  0  0  0  0  0
    7.6838    1.5559   24.9134 C   0  0  0  0  0  0  0  0  0  0  0  0
    7.7520    2.2665   23.5941 N   0  0  0  0  0  0  0  0  0  0  0  0
    7.2319    1.3358   22.5389 C   0  0  0  0  0  0  0  0  0  0  0  0
    7.1209    1.6380   21.0739 O   0  0  0  0  0  0  0  0  0  0  0  0
    6.8424    0.0500   23.2060 C   0  0  0  0  0  0  0  0  0  0  0  0
    6.6169    0.0607   21.7231 C   0  0  0  0  0  0  0  0  0  0  0  0
    6.0480   -1.1487   21.0423 N   0  0  0  0  0  0  0  0  0  0  0  0
    5.7045   -2.3689   21.8443 C   0  0  0  0  0  0  0  0  0  0  0  0
    5.1356   -3.5783   21.1634 O   0  0  0  0  0  0  0  0  0  0  0  0
    5.9300   -2.3796   23.3273 C   0  0  0  0  0  0  0  0  0  0  0  0
    5.5865   -3.5997   24.1293 C   0  0  0  0  0  0  0  0  0  0  0  0
    5.8120   -3.6104   25.6122 C   0  0  0  0  0  0  0  0  0  0  0  0
    6.3809   -2.4009   26.2930 C   0  0  0  0  0  0  0  0  0  0  0  0
    6.6064   -2.4117   27.7760 F   0  0  0  0  0  0  0  0  0  0  0  0
    6.7244   -1.1808   25.4910 C   0  0  0  0  0  0  0  0  0  0  0  0
    6.4989   -1.1701   24.0081 C   0  0  0  0  0  0  0  0  0  0  0  0
    8.2523    3.6626   23.3695 C   0  0  0  0  0  0  0  0  0  0  0  0
    7.3178    4.8268   23.5154 C   0  0  0  0  0  0  0  0  0  0  0  0
    7.8181    6.2229   23.2907 N   0  0  0  0  0  0  0  0  0  0  0  0
    9.2529    6.4548   22.9202 C   0  0  0  0  0  0  0  0  0  0  0  0
   10.1875    5.2906   22.7743 C   0  0  0  0  0  0  0  0  0  0  0  0
   11.6225    5.5226   22.4038 C   0  0  0  0  0  0  0  0  0  0  0  0
   12.5569    4.3584   22.2579 C   0  0  0  0  0  0  0  0  0  0  0  0
   12.0566    2.9623   22.4826 C   0  0  0  0  0  0  0  0  0  0  0  0
   10.6217    2.7304   22.8531 C   0  0  0  0  0  0  0  0  0  0  0  0
    9.6872    3.8945   22.9990 C   0  0  0  0  0  0  0  0  0  0  0  0
    5.8225   -1.1380   19.5593 C   0  0  0  0  0  0  0  0  0  0  0  0
    5.3210    0.1050   18.8859 C   0  0  0  0  0  0  0  0  0  0  0  0
    6.0426    0.6537   17.6908 O   0  0  0  0  0  0  0  0  0  0  0  0
    4.0980    0.7992   19.4075 N   0  0  0  0  0  0  0  0  0  0  0  0
    3.6244    0.4390   20.1919 H   0  0  0  0  0  0  0  0  0  0  0  0
    3.5964    2.0422   18.7341 C   0  0  0  0  0  0  0  0  0  0  0  0
    2.3327    2.6952   19.2101 C   0  0  0  0  0  0  0  0  0  0  0  0
    0.8694    2.6144   19.5297 C   0  0  0  0  0  0  0  0  0  0  0  0
    1.6072    3.9072   19.7148 C   0  0  0  0  0  0  0  0  0  0  0  0
  2  1  1  0  0  0
  2  3  1  0  0  0
  3  4  1  0  0  0
  4 19  1  0  0  0
 19 20  2  0  0  0
 20 21  1  0  0  0
 21 22  2  0  0  0
 22 23  1  0  0  0
 23 24  2  0  0  0
 24 25  1  0  0  0
 25 26  2  0  0  0
 26 27  1  0  0  0
 27 28  2  0  0  0
  4  5  1  0  0  0
  5  6  2  0  0  0
  5  7  1  0  0  0
  7  8  1  0  0  0
  8  9  1  0  0  0
  9 29  1  0  0  0
 29 30  1  0  0  0
 30 31  2  0  0  0
 30 32  1  0  0  0
 32 34  1  0  0  0
 34 35  1  0  0  0
 35 36  1  0  0  0
 36 37  1  0  0  0
  9 10  1  0  0  0
 10 11  2  0  0  0
 10 12  1  0  0  0
 12 13  2  0  0  0
 13 14  1  0  0  0
 14 15  2  0  0  0
 15 16  1  0  0  0
 15 17  1  0  0  0
 17 18  2  0  0  0
  7  2  1  0  0  0
 37 35  1  0  0  0
 18 12  1  0  0  0
 28 19  1  0  0  0
 18  7  1  0  0  0
 28 23  1  0  0  0
 32 33  1  0  0  0
M  END
> <minimizedAffinity>
-7.96058

> <CNNscore>
0.3712260425

> <CNNaffinity>
6.4836935997

> <CNN_VS>
2.4069159031

> <CNNaffinity_variance>
0.0660459772

$$$$



 37 42  0  0  0  0  0  0  0  0999 V2000
    7.1933    0.1842   20.2024 C   0  0  0  0  0  0  0  0  0  0  0  0
    7.5632    0.0825   21.6525 C   0  0  0  0  0  0  0  0  0  0  0  0
    8.9861   -0.3536   21.8402 C   0  0  0  0  0  0  0  0  0  0  0  0
    9.2585   -0.4251   23.3135 N   0  0  0  0  0  0  0  0  0  0  0  0
    8.0040   -0.0332   24.0364 C   0  0  0  0  0  0  0  0  0  0  0  0
    7.8281    0.0333   25.5245 O   0  0  0  0  0  0  0  0  0  0  0  0
    6.9562    0.2805   23.0099 C   0  0  0  0  0  0  0  0  0  0  0  0
    6.4883    0.4363   24.4265 C   0  0  0  0  0  0  0  0  0  0  0  0
    5.0807    0.8716   24.7079 N   0  0  0  0  0  0  0  0  0  0  0  0
    4.1410    1.1512   23.5727 C   0  0  0  0  0  0  0  0  0  0  0  0
    2.7334    1.5865   23.8541 O   0  0  0  0  0  0  0  0  0  0  0  0
    4.6089    0.9955   22.1560 C   0  0  0  0  0  0  0  0  0  0  0  0
    3.6692    1.2751   21.0208 C   0  0  0  0  0  0  0  0  0  0  0  0
    4.1370    1.1194   19.6042 C   0  0  0  0  0  0  0  0  0  0  0  0
    5.5446    0.6840   19.3228 C   0  0  0  0  0  0  0  0  0  0  0  0
    6.0125    0.5283   17.9061 F   0  0  0  0  0  0  0  0  0  0  0  0
    6.4843    0.4044   20.4580 C   0  0  0  0  0  0  0  0  0  0  0  0
    6.0165    0.5602   21.8746 C   0  0  0  0  0  0  0  0  0  0  0  0
   10.5574   -0.8194   23.9518 C   0  0  0  0  0  0  0  0  0  0  0  0
   11.7747    0.0370   23.7660 C   0  0  0  0  0  0  0  0  0  0  0  0
   13.0736   -0.3572   24.4044 N   0  0  0  0  0  0  0  0  0  0  0  0
   13.1550   -1.6079   25.2286 C   0  0  0  0  0  0  0  0  0  0  0  0
   11.9376   -2.4643   25.4144 C   0  0  0  0  0  0  0  0  0  0  0  0
   12.0191   -3.7150   26.2386 C   0  0  0  0  0  0  0  0  0  0  0  0
   10.8016   -4.5713   26.4243 C   0  0  0  0  0  0  0  0  0  0  0  0
    9.5028   -4.1770   25.7860 C   0  0  0  0  0  0  0  0  0  0  0  0
    9.4214   -2.9264   24.9618 C   0  0  0  0  0  0  0  0  0  0  0  0
   10.6387   -2.0700   24.7760 C   0  0  0  0  0  0  0  0  0  0  0  0
    4.6129    1.0273   26.1246 C   0  0  0  0  0  0  0  0  0  0  0  0
    4.4801   -0.1781   27.0073 C   0  0  0  0  0  0  0  0  0  0  0  0
    3.1223   -0.7368   27.3146 O   0  0  0  0  0  0  0  0  0  0  0  0
    5.7050   -0.8248   27.5828 N   0  0  0  0  0  0  0  0  0  0  0  0
    6.5961   -0.4581   27.3811 H   0  0  0  0  0  0  0  0  0  0  0  0
    5.5723   -2.0303   28.4656 C   0  0  0  0  0  0  0  0  0  0  0  0
    5.5717   -1.8712   29.9571 C   0  0  0  0  0  0  0  0  0  0  0  0
    5.9132   -1.0698   31.1782 C   0  0  0  0  0  0  0  0  0  0  0  0
    5.2291   -2.3972   31.3195 C   0  0  0  0  0  0  0  0  0  0  0  0
  2  1  1  0  0  0
  2  3  1  0  0  0
  3  4  1  0  0  0
  4 19  1  0  0  0
 19 20  2  0  0  0
 20 21  1  0  0  0
 21 22  2  0  0  0
 22 23  1  0  0  0
 23 24  2  0  0  0
 24 25  1  0  0  0
 25 26  2  0  0  0
 26 27  1  0  0  0
 27 28  2  0  0  0
  4  5  1  0  0  0
  5  6  2  0  0  0
  5  7  1  0  0  0
  7  8  1  0  0  0
  8  9  1  0  0  0
  9 29  1  0  0  0
 29 30  1  0  0  0
 30 31  2  0  0  0
 30 32  1  0  0  0
 32 34  1  0  0  0
 34 35  1  0  0  0
 35 36  1  0  0  0
 36 37  1  0  0  0
  9 10  1  0  0  0
 10 11  2  0  0  0
 10 12  1  0  0  0
 12 13  2  0  0  0
 13 14  1  0  0  0
 14 15  2  0  0  0
 15 16  1  0  0  0
 15 17  1  0  0  0
 17 18  2  0  0  0
  7  2  1  0  0  0
 37 35  1  0  0  0
 18 12  1  0  0  0
 28 19  1  0  0  0
 18  7  1  0  0  0
 28 23  1  0  0  0
 32 33  1  0  0  0
M  END
> <minimizedAffinity>
-8.07501

> <CNNscore>
0.3334006369

> <CNNaffinity>
6.3522925377

> <CNN_VS>
2.1178584099

> <CNNaffinity_variance>
0.1047861800

$$$$



 37 42  0  0  0  0  0  0  0  0999 V2000
   10.9102   -3.2522   26.3045 C   0  0  0  0  0  0  0  0  0  0  0  0
    9.5620   -2.7911   25.8357 C   0  0  0  0  0  0  0  0  0  0  0  0
    8.4518   -3.6093   26.4257 C   0  0  0  0  0  0  0  0  0  0  0  0
    7.1525   -3.0748   25.9004 N   0  0  0  0  0  0  0  0  0  0  0  0
    7.4596   -1.9263   24.9858 C   0  0  0  0  0  0  0  0  0  0  0  0
    6.4540   -1.0984   24.2417 O   0  0  0  0  0  0  0  0  0  0  0  0
    8.9488   -1.7509   24.9457 C   0  0  0  0  0  0  0  0  0  0  0  0
    8.1960   -0.7711   24.0953 C   0  0  0  0  0  0  0  0  0  0  0  0
    8.9411    0.2629   23.3042 N   0  0  0  0  0  0  0  0  0  0  0  0
   10.4390    0.3170   23.3636 C   0  0  0  0  0  0  0  0  0  0  0  0
   11.1841    1.3509   22.5725 O   0  0  0  0  0  0  0  0  0  0  0  0
   11.1918   -0.6629   24.2140 C   0  0  0  0  0  0  0  0  0  0  0  0
   12.6896   -0.6088   24.2734 C   0  0  0  0  0  0  0  0  0  0  0  0
   13.4423   -1.5887   25.1238 C   0  0  0  0  0  0  0  0  0  0  0  0
   12.6972   -2.6226   25.9149 C   0  0  0  0  0  0  0  0  0  0  0  0
   13.4500   -3.6025   26.7654 F   0  0  0  0  0  0  0  0  0  0  0  0
   11.1994   -2.6767   25.8555 C   0  0  0  0  0  0  0  0  0  0  0  0
   10.4467   -1.6969   25.0051 C   0  0  0  0  0  0  0  0  0  0  0  0
    5.7859   -3.5970   26.2317 C   0  0  0  0  0  0  0  0  0  0  0  0
    5.0983   -3.1545   27.4891 C   0  0  0  0  0  0  0  0  0  0  0  0
    3.7317   -3.6767   27.8203 N   0  0  0  0  0  0  0  0  0  0  0  0
    3.0528   -4.6416   26.8940 C   0  0  0  0  0  0  0  0  0  0  0  0
    3.7405   -5.0842   25.6365 C   0  0  0  0  0  0  0  0  0  0  0  0
    3.0615   -6.0492   24.7102 C   0  0  0  0  0  0  0  0  0  0  0  0
    3.7492   -6.4918   23.4528 C   0  0  0  0  0  0  0  0  0  0  0  0
    5.1157   -5.9695   23.1216 C   0  0  0  0  0  0  0  0  0  0  0  0
    5.7946   -5.0046   24.0479 C   0  0  0  0  0  0  0  0  0  0  0  0
    5.1070   -4.5620   25.3053 C   0  0  0  0  0  0  0  0  0  0  0  0
    8.1883    1.2427   22.4537 C   0  0  0  0  0  0  0  0  0  0  0  0
    7.6399    2.4987   23.0634 C   0  0  0  0  0  0  0  0  0  0  0  0
    7.5761    2.6424   24.5552 O   0  0  0  0  0  0  0  0  0  0  0  0
    7.1553    3.6109   22.1814 N   0  0  0  0  0  0  0  0  0  0  0  0
    7.1972    3.5166   21.2023 H   0  0  0  0  0  0  0  0  0  0  0  0
    6.6068    4.8670   22.7910 C   0  0  0  0  0  0  0  0  0  0  0  0
    6.0997    5.9693   21.9092 C   0  0  0  0  0  0  0  0  0  0  0  0
    6.3162    6.9344   20.7816 C   0  0  0  0  0  0  0  0  0  0  0  0
    5.0048    6.9134   21.5094 C   0  0  0  0  0  0  0  0  0  0  0  0
  2  1  1  0  0  0
  2  3  1  0  0  0
  3  4  1  0  0  0
  4 19  1  0  0  0
 19 20  2  0  0  0
 20 21  1  0  0  0
 21 22  2  0  0  0
 22 23  1  0  0  0
 23 24  2  0  0  0
 24 25  1  0  0  0
 25 26  2  0  0  0
 26 27  1  0  0  0
 27 28  2  0  0  0
  4  5  1  0  0  0
  5  6  2  0  0  0
  5  7  1  0  0  0
  7  8  1  0  0  0
  8  9  1  0  0  0
  9 29  1  0  0  0
 29 30  1  0  0  0
 30 31  2  0  0  0
 30 32  1  0  0  0
 32 34  1  0  0  0
 34 35  1  0  0  0
 35 36  1  0  0  0
 36 37  1  0  0  0
  9 10  1  0  0  0
 10 11  2  0  0  0
 10 12  1  0  0  0
 12 13  2  0  0  0
 13 14  1  0  0  0
 14 15  2  0  0  0
 15 16  1  0  0  0
 15 17  1  0  0  0
 17 18  2  0  0  0
  7  2  1  0  0  0
 37 35  1  0  0  0
 18 12  1  0  0  0
 28 19  1  0  0  0
 18  7  1  0  0  0
 28 23  1  0  0  0
 32 33  1  0  0  0
M  END
> <minimizedAffinity>
-7.85457

> <CNNscore>
0.3204434216

> <CNNaffinity>
6.4469594955

> <CNN_VS>
2.0658857822

> <CNNaffinity_variance>
0.2282784432

$$$$



 37 42  0  0  0  0  0  0  0  0999 V2000
   11.0408   -3.1298   26.4260 C   0  0  0  0  0  0  0  0  0  0  0  0
    9.6111   -2.7554   26.1690 C   0  0  0  0  0  0  0  0  0  0  0  0
    8.6570   -3.6175   26.9413 C   0  0  0  0  0  0  0  0  0  0  0  0
    7.2624   -3.1687   26.6196 N   0  0  0  0  0  0  0  0  0  0  0  0
    7.3546   -2.0293   25.6484 C   0  0  0  0  0  0  0  0  0  0  0  0
    6.1981   -1.2773   25.0592 O   0  0  0  0  0  0  0  0  0  0  0  0
    8.8062   -1.7738   25.3699 C   0  0  0  0  0  0  0  0  0  0  0  0
    7.8735   -0.8590   24.6330 C   0  0  0  0  0  0  0  0  0  0  0  0
    8.4235    0.1932   23.7164 N   0  0  0  0  0  0  0  0  0  0  0  0
    9.9063    0.3307   23.5367 C   0  0  0  0  0  0  0  0  0  0  0  0
   10.4564    1.3829   22.6201 O   0  0  0  0  0  0  0  0  0  0  0  0
   10.8392   -0.5841   24.2736 C   0  0  0  0  0  0  0  0  0  0  0  0
   12.3220   -0.4467   24.0940 C   0  0  0  0  0  0  0  0  0  0  0  0
   13.2547   -1.3615   24.8309 C   0  0  0  0  0  0  0  0  0  0  0  0
   12.7046   -2.4137   25.7475 C   0  0  0  0  0  0  0  0  0  0  0  0
   13.6374   -3.3285   26.4845 F   0  0  0  0  0  0  0  0  0  0  0  0
   11.2218   -2.5512   25.9272 C   0  0  0  0  0  0  0  0  0  0  0  0
   10.2891   -1.6364   25.1903 C   0  0  0  0  0  0  0  0  0  0  0  0
    5.9976   -3.7562   27.1720 C   0  0  0  0  0  0  0  0  0  0  0  0
    5.5839   -3.4547   28.5818 C   0  0  0  0  0  0  0  0  0  0  0  0
    4.3191   -4.0422   29.1343 N   0  0  0  0  0  0  0  0  0  0  0  0
    3.4680   -4.9311   28.2767 C   0  0  0  0  0  0  0  0  0  0  0  0
    3.8817   -5.2326   26.8667 C   0  0  0  0  0  0  0  0  0  0  0  0
    3.0306   -6.1216   26.0091 C   0  0  0  0  0  0  0  0  0  0  0  0
    3.4444   -6.4230   24.5992 C   0  0  0  0  0  0  0  0  0  0  0  0
    4.7091   -5.8355   24.0469 C   0  0  0  0  0  0  0  0  0  0  0  0
    5.5602   -4.9466   24.9044 C   0  0  0  0  0  0  0  0  0  0  0  0
    5.1465   -4.6451   26.3143 C   0  0  0  0  0  0  0  0  0  0  0  0
    7.4907    1.1080   22.9794 C   0  0  0  0  0  0  0  0  0  0  0  0
    6.9415    0.7020   21.6439 C   0  0  0  0  0  0  0  0  0  0  0  0
    7.5361    1.2633   20.3864 O   0  0  0  0  0  0  0  0  0  0  0  0
    5.7978   -0.2653   21.5660 N   0  0  0  0  0  0  0  0  0  0  0  0
    5.4075   -0.6336   22.3914 H   0  0  0  0  0  0  0  0  0  0  0  0
    5.2485   -0.6713   20.2305 C   0  0  0  0  0  0  0  0  0  0  0  0
    4.8165    0.3759   19.2474 C   0  0  0  0  0  0  0  0  0  0  0  0
    4.0671    1.6382   18.9394 C   0  0  0  0  0  0  0  0  0  0  0  0
    4.8176    0.9275   17.8525 C   0  0  0  0  0  0  0  0  0  0  0  0
  2  1  1  0  0  0
  2  3  1  0  0  0
  3  4  1  0  0  0
  4 19  1  0  0  0
 19 20  2  0  0  0
 20 21  1  0  0  0
 21 22  2  0  0  0
 22 23  1  0  0  0
 23 24  2  0  0  0
 24 25  1  0  0  0
 25 26  2  0  0  0
 26 27  1  0  0  0
 27 28  2  0  0  0
  4  5  1  0  0  0
  5  6  2  0  0  0
  5  7  1  0  0  0
  7  8  1  0  0  0
  8  9  1  0  0  0
  9 29  1  0  0  0
 29 30  1  0  0  0
 30 31  2  0  0  0
 30 32  1  0  0  0
 32 34  1  0  0  0
 34 35  1  0  0  0
 35 36  1  0  0  0
 36 37  1  0  0  0
  9 10  1  0  0  0
 10 11  2  0  0  0
 10 12  1  0  0  0
 12 13  2  0  0  0
 13 14  1  0  0  0
 14 15  2  0  0  0
 15 16  1  0  0  0
 15 17  1  0  0  0
 17 18  2  0  0  0
  7  2  1  0  0  0
 37 35  1  0  0  0
 18 12  1  0  0  0
 28 19  1  0  0  0
 18  7  1  0  0  0
 28 23  1  0  0  0
 32 33  1  0  0  0
M  END
> <minimizedAffinity>
-8.77725

> <CNNscore>
0.3064701855

> <CNNaffinity>
6.4550590515

> <CNN_VS>
1.9782831669

> <CNNaffinity_variance>
0.0606795438

$$$$



 37 42  0  0  0  0  0  0  0  0999 V2000
   10.9266   -3.2238   26.0583 C   0  0  0  0  0  0  0  0  0  0  0  0
    9.5509   -2.7111   25.7505 C   0  0  0  0  0  0  0  0  0  0  0  0
    8.4816   -3.5830   26.3391 C   0  0  0  0  0  0  0  0  0  0  0  0
    7.1510   -2.9916   25.9791 N   0  0  0  0  0  0  0  0  0  0  0  0
    7.3979   -1.7542   25.1680 C   0  0  0  0  0  0  0  0  0  0  0  0
    6.3461   -0.8491   24.5982 O   0  0  0  0  0  0  0  0  0  0  0  0
    8.8811   -1.5808   25.0267 C   0  0  0  0  0  0  0  0  0  0  0  0
    8.0747   -0.5142   24.3470 C   0  0  0  0  0  0  0  0  0  0  0  0
    8.7667    0.5947   23.6111 N   0  0  0  0  0  0  0  0  0  0  0  0
   10.2650    0.6370   23.5549 C   0  0  0  0  0  0  0  0  0  0  0  0
   10.9569    1.7459   22.8191 O   0  0  0  0  0  0  0  0  0  0  0  0
   11.0714   -0.4297   24.2347 C   0  0  0  0  0  0  0  0  0  0  0  0
   12.5698   -0.3874   24.1785 C   0  0  0  0  0  0  0  0  0  0  0  0
   13.3761   -1.4540   24.8582 C   0  0  0  0  0  0  0  0  0  0  0  0
   12.6842   -2.5629   25.5940 C   0  0  0  0  0  0  0  0  0  0  0  0
   13.4906   -3.6296   26.2738 F   0  0  0  0  0  0  0  0  0  0  0  0
   11.1859   -2.6052   25.6502 C   0  0  0  0  0  0  0  0  0  0  0  0
   10.3795   -1.5386   24.9705 C   0  0  0  0  0  0  0  0  0  0  0  0
    5.8090   -3.5411   26.3628 C   0  0  0  0  0  0  0  0  0  0  0  0
    5.1898   -3.1600   27.6747 C   0  0  0  0  0  0  0  0  0  0  0  0
    3.8478   -3.7094   28.0584 N   0  0  0  0  0  0  0  0  0  0  0  0
    3.1252   -4.6401   27.1302 C   0  0  0  0  0  0  0  0  0  0  0  0
    3.7445   -5.0212   25.8182 C   0  0  0  0  0  0  0  0  0  0  0  0
    3.0217   -5.9519   24.8899 C   0  0  0  0  0  0  0  0  0  0  0  0
    3.6411   -6.3330   23.5780 C   0  0  0  0  0  0  0  0  0  0  0  0
    4.9830   -5.7835   23.1943 C   0  0  0  0  0  0  0  0  0  0  0  0
    5.7056   -4.8529   24.1226 C   0  0  0  0  0  0  0  0  0  0  0  0
    5.0864   -4.4717   25.4345 C   0  0  0  0  0  0  0  0  0  0  0  0
    7.9602    1.6613   22.9314 C   0  0  0  0  0  0  0  0  0  0  0  0
    7.9814    3.0664   23.4561 C   0  0  0  0  0  0  0  0  0  0  0  0
    7.1374    3.4380   24.6391 O   0  0  0  0  0  0  0  0  0  0  0  0
    8.8465    4.0998   22.7977 N   0  0  0  0  0  0  0  0  0  0  0  0
    9.4005    3.8559   22.0213 H   0  0  0  0  0  0  0  0  0  0  0  0
    8.8677    5.5050   23.3224 C   0  0  0  0  0  0  0  0  0  0  0  0
   10.0293    6.4028   23.0151 C   0  0  0  0  0  0  0  0  0  0  0  0
   10.8516    7.6170   23.3303 C   0  0  0  0  0  0  0  0  0  0  0  0
   11.2190    6.7438   22.1674 C   0  0  0  0  0  0  0  0  0  0  0  0
  2  1  1  0  0  0
  2  3  1  0  0  0
  3  4  1  0  0  0
  4 19  1  0  0  0
 19 20  2  0  0  0
 20 21  1  0  0  0
 21 22  2  0  0  0
 22 23  1  0  0  0
 23 24  2  0  0  0
 24 25  1  0  0  0
 25 26  2  0  0  0
 26 27  1  0  0  0
 27 28  2  0  0  0
  4  5  1  0  0  0
  5  6  2  0  0  0
  5  7  1  0  0  0
  7  8  1  0  0  0
  8  9  1  0  0  0
  9 29  1  0  0  0
 29 30  1  0  0  0
 30 31  2  0  0  0
 30 32  1  0  0  0
 32 34  1  0  0  0
 34 35  1  0  0  0
 35 36  1  0  0  0
 36 37  1  0  0  0
  9 10  1  0  0  0
 10 11  2  0  0  0
 10 12  1  0  0  0
 12 13  2  0  0  0
 13 14  1  0  0  0
 14 15  2  0  0  0
 15 16  1  0  0  0
 15 17  1  0  0  0
 17 18  2  0  0  0
  7  2  1  0  0  0
 37 35  1  0  0  0
 18 12  1  0  0  0
 28 19  1  0  0  0
 18  7  1  0  0  0
 28 23  1  0  0  0
 32 33  1  0  0  0
M  END
> <minimizedAffinity>
-8.17738

> <CNNscore>
0.2673260570

> <CNNaffinity>
6.5649442673

> <CNN_VS>
1.7549806833

> <CNNaffinity_variance>
0.1495114416

$$$$
