


 34 38  0  0  0  0  0  0  0  0999 V2000
   -7.2149   -0.0903  -21.2006 C   0  0  0  0  0  0  0  0  0  0  0  0
   -8.4099   -0.2324  -22.0961 C   0  0  0  0  0  0  0  0  0  0  0  0
   -9.1990    1.0402  -22.1861 C   0  0  0  0  0  0  0  0  0  0  0  0
  -10.3653    0.7988  -23.0979 N   0  0  0  0  0  0  0  0  0  0  0  0
  -10.2971   -0.6229  -23.5714 C   0  0  0  0  0  0  0  0  0  0  0  0
  -11.2671   -1.2901  -24.5008 O   0  0  0  0  0  0  0  0  0  0  0  0
   -9.0886   -1.2602  -22.9523 C   0  0  0  0  0  0  0  0  0  0  0  0
   -9.8733   -2.1774  -23.8427 C   0  0  0  0  0  0  0  0  0  0  0  0
   -9.4226   -3.5938  -24.0443 N   0  0  0  0  0  0  0  0  0  0  0  0
   -8.1871   -4.0930  -23.3555 C   0  0  0  0  0  0  0  0  0  0  0  0
   -7.7364   -5.5094  -23.5572 O   0  0  0  0  0  0  0  0  0  0  0  0
   -7.4023   -3.1758  -22.4651 C   0  0  0  0  0  0  0  0  0  0  0  0
   -6.1669   -3.6749  -21.7763 C   0  0  0  0  0  0  0  0  0  0  0  0
   -5.3821   -2.7577  -20.8859 C   0  0  0  0  0  0  0  0  0  0  0  0
   -5.8329   -1.3413  -20.6843 C   0  0  0  0  0  0  0  0  0  0  0  0
   -5.0480   -0.4241  -19.7939 Cl  0  0  0  0  0  0  0  0  0  0  0  0
   -7.0683   -0.8421  -21.3731 C   0  0  0  0  0  0  0  0  0  0  0  0
   -7.8530   -1.7594  -22.2635 C   0  0  0  0  0  0  0  0  0  0  0  0
  -11.4156    1.8028  -23.4707 C   0  0  0  0  0  0  0  0  0  0  0  0
  -12.8017    1.6812  -22.9107 C   0  0  0  0  0  0  0  0  0  0  0  0
  -13.8519    2.6852  -23.2835 N   0  0  0  0  0  0  0  0  0  0  0  0
  -13.5159    3.8108  -24.2163 C   0  0  0  0  0  0  0  0  0  0  0  0
  -12.1297    3.9323  -24.7764 C   0  0  0  0  0  0  0  0  0  0  0  0
  -11.7937    5.0579  -25.7093 C   0  0  0  0  0  0  0  0  0  0  0  0
  -10.4075    5.1794  -26.2693 C   0  0  0  0  0  0  0  0  0  0  0  0
   -9.3573    4.1754  -25.8964 C   0  0  0  0  0  0  0  0  0  0  0  0
   -9.6933    3.0499  -24.9636 C   0  0  0  0  0  0  0  0  0  0  0  0
  -11.0795    2.9283  -24.4036 C   0  0  0  0  0  0  0  0  0  0  0  0
  -10.2074   -4.5111  -24.9347 C   0  0  0  0  0  0  0  0  0  0  0  0
   -9.8025   -4.6931  -26.3675 C   0  0  0  0  0  0  0  0  0  0  0  0
   -9.3562   -6.0394  -26.8555 N   0  0  0  0  0  0  0  0  0  0  0  0
   -8.8038   -6.1894  -28.2420 C   0  0  0  0  0  0  0  0  0  0  0  0
   -9.4622   -7.2358  -25.9569 C   0  0  0  0  0  0  0  0  0  0  0  0
   -9.0527   -6.9550  -27.1873 H   0  0  0  0  0  0  0  0  0  0  0  0
  2  1  1  0  0  0
  2  3  1  0  0  0
  3  4  1  0  0  0
  4 19  1  0  0  0
 19 20  2  0  0  0
 20 21  1  0  0  0
 21 22  2  0  0  0
 22 23  1  0  0  0
 23 24  2  0  0  0
 24 25  1  0  0  0
 25 26  2  0  0  0
 26 27  1  0  0  0
 27 28  2  0  0  0
  4  5  1  0  0  0
  5  6  2  0  0  0
  5  7  1  0  0  0
  7  8  1  0  0  0
  8  9  1  0  0  0
  9 29  1  0  0  0
 29 30  1  0  0  0
 30 31  1  0  0  0
 31 32  1  0  0  0
 31 33  1  0  0  0
  9 10  1  0  0  0
 10 11  2  0  0  0
 10 12  1  0  0  0
 12 13  2  0  0  0
 13 14  1  0  0  0
 14 15  2  0  0  0
 15 16  1  0  0  0
 15 17  1  0  0  0
 17 18  2  0  0  0
  7  2  1  0  0  0
 18 12  1  0  0  0
 28 19  1  0  0  0
 18  7  1  0  0  0
 28 23  1  0  0  0
 31 34  1  0  0  0
M  CHG 1  31   1
M  END
> <minimizedAffinity>
-8.22139

> <CNNscore>
0.6366055608

> <CNNaffinity>
6.3933691978

> <CNN_VS>
4.0700545311

> <CNNaffinity_variance>
0.1105430871

$$$$



 34 38  0  0  0  0  0  0  0  0999 V2000
  -11.5312   -1.6226  -23.2446 C   0  0  0  0  0  0  0  0  0  0  0  0
  -10.0315   -1.6377  -23.2762 C   0  0  0  0  0  0  0  0  0  0  0  0
   -9.4807   -3.0268  -23.1461 C   0  0  0  0  0  0  0  0  0  0  0  0
   -7.9839   -2.9377  -23.1882 N   0  0  0  0  0  0  0  0  0  0  0  0
   -7.6098   -1.4935  -23.3443 C   0  0  0  0  0  0  0  0  0  0  0  0
   -6.2150   -0.9486  -23.4309 O   0  0  0  0  0  0  0  0  0  0  0  0
   -8.8752   -0.6900  -23.3987 C   0  0  0  0  0  0  0  0  0  0  0  0
   -7.6255    0.1319  -23.5104 C   0  0  0  0  0  0  0  0  0  0  0  0
   -7.7184    1.6214  -23.6609 N   0  0  0  0  0  0  0  0  0  0  0  0
   -9.0610    2.2890  -23.6997 C   0  0  0  0  0  0  0  0  0  0  0  0
   -9.1539    3.7786  -23.8502 O   0  0  0  0  0  0  0  0  0  0  0  0
  -10.3109    1.4671  -23.5880 C   0  0  0  0  0  0  0  0  0  0  0  0
  -11.6535    2.1348  -23.6267 C   0  0  0  0  0  0  0  0  0  0  0  0
  -12.9032    1.3129  -23.5150 C   0  0  0  0  0  0  0  0  0  0  0  0
  -12.8104   -0.1767  -23.3645 C   0  0  0  0  0  0  0  0  0  0  0  0
  -14.0602   -0.9986  -23.2528 Cl  0  0  0  0  0  0  0  0  0  0  0  0
  -11.4677   -0.8443  -23.3257 C   0  0  0  0  0  0  0  0  0  0  0  0
  -10.2180   -0.0224  -23.4375 C   0  0  0  0  0  0  0  0  0  0  0  0
   -7.0290   -4.0904  -23.0912 C   0  0  0  0  0  0  0  0  0  0  0  0
   -6.2775   -4.3366  -21.8167 C   0  0  0  0  0  0  0  0  0  0  0  0
   -5.3226   -5.4892  -21.7197 N   0  0  0  0  0  0  0  0  0  0  0  0
   -5.1192   -6.3957  -22.8973 C   0  0  0  0  0  0  0  0  0  0  0  0
   -5.8707   -6.1496  -24.1719 C   0  0  0  0  0  0  0  0  0  0  0  0
   -5.6673   -7.0561  -25.3496 C   0  0  0  0  0  0  0  0  0  0  0  0
   -6.4188   -6.8099  -26.6242 C   0  0  0  0  0  0  0  0  0  0  0  0
   -7.3737   -5.6572  -26.7211 C   0  0  0  0  0  0  0  0  0  0  0  0
   -7.5771   -4.7507  -25.5435 C   0  0  0  0  0  0  0  0  0  0  0  0
   -6.8257   -4.9969  -24.2689 C   0  0  0  0  0  0  0  0  0  0  0  0
   -6.4685    2.4433  -23.7727 C   0  0  0  0  0  0  0  0  0  0  0  0
   -5.8414    3.0259  -22.5409 C   0  0  0  0  0  0  0  0  0  0  0  0
   -5.7368    4.5141  -22.3848 N   0  0  0  0  0  0  0  0  0  0  0  0
   -4.4507    5.2139  -22.7112 C   0  0  0  0  0  0  0  0  0  0  0  0
   -6.9181    5.3025  -21.9024 C   0  0  0  0  0  0  0  0  0  0  0  0
   -5.6656    5.5260  -22.2787 H   0  0  0  0  0  0  0  0  0  0  0  0
  2  1  1  0  0  0
  2  3  1  0  0  0
  3  4  1  0  0  0
  4 19  1  0  0  0
 19 20  2  0  0  0
 20 21  1  0  0  0
 21 22  2  0  0  0
 22 23  1  0  0  0
 23 24  2  0  0  0
 24 25  1  0  0  0
 25 26  2  0  0  0
 26 27  1  0  0  0
 27 28  2  0  0  0
  4  5  1  0  0  0
  5  6  2  0  0  0
  5  7  1  0  0  0
  7  8  1  0  0  0
  8  9  1  0  0  0
  9 29  1  0  0  0
 29 30  1  0  0  0
 30 31  1  0  0  0
 31 32  1  0  0  0
 31 33  1  0  0  0
  9 10  1  0  0  0
 10 11  2  0  0  0
 10 12  1  0  0  0
 12 13  2  0  0  0
 13 14  1  0  0  0
 14 15  2  0  0  0
 15 16  1  0  0  0
 15 17  1  0  0  0
 17 18  2  0  0  0
  7  2  1  0  0  0
 18 12  1  0  0  0
 28 19  1  0  0  0
 18  7  1  0  0  0
 28 23  1  0  0  0
 31 34  1  0  0  0
M  CHG 1  31   1
M  END
> <minimizedAffinity>
-7.46789

> <CNNscore>
0.3086800575

> <CNNaffinity>
6.1985759735

> <CNN_VS>
1.9133768082

> <CNNaffinity_variance>
0.2334973514

$$$$



 34 38  0  0  0  0  0  0  0  0999 V2000
   -7.3727   -5.1094  -23.2737 C   0  0  0  0  0  0  0  0  0  0  0  0
   -7.1194   -3.6371  -23.1383 C   0  0  0  0  0  0  0  0  0  0  0  0
   -6.6465   -3.2726  -21.7622 C   0  0  0  0  0  0  0  0  0  0  0  0
   -6.4222   -1.7899  -21.7268 N   0  0  0  0  0  0  0  0  0  0  0  0
   -6.7564   -1.2381  -23.0810 C   0  0  0  0  0  0  0  0  0  0  0  0
   -6.6742    0.2025  -23.4909 O   0  0  0  0  0  0  0  0  0  0  0  0
   -7.1873   -2.3797  -23.9534 C   0  0  0  0  0  0  0  0  0  0  0  0
   -7.2052   -1.0465  -24.6404 C   0  0  0  0  0  0  0  0  0  0  0  0
   -7.6295   -0.9480  -26.0758 N   0  0  0  0  0  0  0  0  0  0  0  0
   -8.0358   -2.1828  -26.8241 C   0  0  0  0  0  0  0  0  0  0  0  0
   -8.4601   -2.0844  -28.2595 O   0  0  0  0  0  0  0  0  0  0  0  0
   -8.0180   -3.5162  -26.1371 C   0  0  0  0  0  0  0  0  0  0  0  0
   -8.4244   -4.7510  -26.8854 C   0  0  0  0  0  0  0  0  0  0  0  0
   -8.4065   -6.0842  -26.1983 C   0  0  0  0  0  0  0  0  0  0  0  0
   -7.9822   -6.1827  -24.7630 C   0  0  0  0  0  0  0  0  0  0  0  0
   -7.9643   -7.5160  -24.0759 Cl  0  0  0  0  0  0  0  0  0  0  0  0
   -7.5758   -4.9479  -24.0146 C   0  0  0  0  0  0  0  0  0  0  0  0
   -7.5937   -3.6146  -24.7017 C   0  0  0  0  0  0  0  0  0  0  0  0
   -5.9471   -0.9980  -20.5448 C   0  0  0  0  0  0  0  0  0  0  0  0
   -6.6744   -1.0939  -19.2365 C   0  0  0  0  0  0  0  0  0  0  0  0
   -6.1993   -0.3020  -18.0545 N   0  0  0  0  0  0  0  0  0  0  0  0
   -4.9969    0.5859  -18.1809 C   0  0  0  0  0  0  0  0  0  0  0  0
   -4.2696    0.6818  -19.4892 C   0  0  0  0  0  0  0  0  0  0  0  0
   -3.0672    1.5697  -19.6156 C   0  0  0  0  0  0  0  0  0  0  0  0
   -2.3399    1.6655  -20.9240 C   0  0  0  0  0  0  0  0  0  0  0  0
   -2.8151    0.8736  -22.1059 C   0  0  0  0  0  0  0  0  0  0  0  0
   -4.0174   -0.0142  -21.9796 C   0  0  0  0  0  0  0  0  0  0  0  0
   -4.7447   -0.1101  -20.6713 C   0  0  0  0  0  0  0  0  0  0  0  0
   -7.6473    0.3853  -26.7628 C   0  0  0  0  0  0  0  0  0  0  0  0
   -6.5548    1.3790  -26.5003 C   0  0  0  0  0  0  0  0  0  0  0  0
   -5.1271    1.0158  -26.7824 N   0  0  0  0  0  0  0  0  0  0  0  0
   -4.7623    0.3614  -28.0819 C   0  0  0  0  0  0  0  0  0  0  0  0
   -4.0640    1.3069  -25.7649 C   0  0  0  0  0  0  0  0  0  0  0  0
   -4.1562    0.7688  -26.9742 H   0  0  0  0  0  0  0  0  0  0  0  0
  2  1  1  0  0  0
  2  3  1  0  0  0
  3  4  1  0  0  0
  4 19  1  0  0  0
 19 20  2  0  0  0
 20 21  1  0  0  0
 21 22  2  0  0  0
 22 23  1  0  0  0
 23 24  2  0  0  0
 24 25  1  0  0  0
 25 26  2  0  0  0
 26 27  1  0  0  0
 27 28  2  0  0  0
  4  5  1  0  0  0
  5  6  2  0  0  0
  5  7  1  0  0  0
  7  8  1  0  0  0
  8  9  1  0  0  0
  9 29  1  0  0  0
 29 30  1  0  0  0
 30 31  1  0  0  0
 31 32  1  0  0  0
 31 33  1  0  0  0
  9 10  1  0  0  0
 10 11  2  0  0  0
 10 12  1  0  0  0
 12 13  2  0  0  0
 13 14  1  0  0  0
 14 15  2  0  0  0
 15 16  1  0  0  0
 15 17  1  0  0  0
 17 18  2  0  0  0
  7  2  1  0  0  0
 18 12  1  0  0  0
 28 19  1  0  0  0
 18  7  1  0  0  0
 28 23  1  0  0  0
 31 34  1  0  0  0
M  CHG 1  31   1
M  END
> <minimizedAffinity>
-7.04002

> <CNNscore>
0.2666963339

> <CNNaffinity>
5.9264431000

> <CNN_VS>
1.5805606842

> <CNNaffinity_variance>
0.1768283248

$$$$



 34 38  0  0  0  0  0  0  0  0999 V2000
  -11.5068   -1.5344  -23.2243 C   0  0  0  0  0  0  0  0  0  0  0  0
  -10.0080   -1.5833  -23.2608 C   0  0  0  0  0  0  0  0  0  0  0  0
   -9.4884   -2.9849  -23.1356 C   0  0  0  0  0  0  0  0  0  0  0  0
   -7.9901   -2.9297  -23.1825 N   0  0  0  0  0  0  0  0  0  0  0  0
   -7.5838   -1.4940  -23.3367 C   0  0  0  0  0  0  0  0  0  0  0  0
   -6.1772   -0.9806  -23.4266 O   0  0  0  0  0  0  0  0  0  0  0  0
   -8.8309   -0.6619  -23.3851 C   0  0  0  0  0  0  0  0  0  0  0  0
   -7.5632    0.1317  -23.4991 C   0  0  0  0  0  0  0  0  0  0  0  0
   -7.6227    1.6233  -23.6460 N   0  0  0  0  0  0  0  0  0  0  0  0
   -8.9500    2.3213  -23.6789 C   0  0  0  0  0  0  0  0  0  0  0  0
   -9.0095    3.8129  -23.8258 O   0  0  0  0  0  0  0  0  0  0  0  0
  -10.2178    1.5277  -23.5648 C   0  0  0  0  0  0  0  0  0  0  0  0
  -11.5450    2.2257  -23.5977 C   0  0  0  0  0  0  0  0  0  0  0  0
  -12.8128    1.4321  -23.4837 C   0  0  0  0  0  0  0  0  0  0  0  0
  -12.7532   -0.0595  -23.3368 C   0  0  0  0  0  0  0  0  0  0  0  0
  -14.0210   -0.8531  -23.2227 Cl  0  0  0  0  0  0  0  0  0  0  0  0
  -11.4259   -0.7575  -23.3039 C   0  0  0  0  0  0  0  0  0  0  0  0
  -10.1582    0.0361  -23.4179 C   0  0  0  0  0  0  0  0  0  0  0  0
   -7.0613   -4.1039  -23.0912 C   0  0  0  0  0  0  0  0  0  0  0  0
   -6.3248   -4.3801  -21.8140 C   0  0  0  0  0  0  0  0  0  0  0  0
   -5.3960   -5.5544  -21.7227 N   0  0  0  0  0  0  0  0  0  0  0  0
   -5.2036   -6.4524  -22.9087 C   0  0  0  0  0  0  0  0  0  0  0  0
   -5.9401   -6.1762  -24.1859 C   0  0  0  0  0  0  0  0  0  0  0  0
   -5.7477   -7.0743  -25.3719 C   0  0  0  0  0  0  0  0  0  0  0  0
   -6.4842   -6.7980  -26.6491 C   0  0  0  0  0  0  0  0  0  0  0  0
   -7.4130   -5.6238  -26.7403 C   0  0  0  0  0  0  0  0  0  0  0  0
   -7.6054   -4.7257  -25.5544 C   0  0  0  0  0  0  0  0  0  0  0  0
   -6.8689   -5.0019  -24.2772 C   0  0  0  0  0  0  0  0  0  0  0  0
   -6.3549    2.4169  -23.7601 C   0  0  0  0  0  0  0  0  0  0  0  0
   -6.0233    3.1204  -25.0426 C   0  0  0  0  0  0  0  0  0  0  0  0
   -6.2529    4.5973  -25.1690 N   0  0  0  0  0  0  0  0  0  0  0  0
   -6.8315    5.1610  -26.4330 C   0  0  0  0  0  0  0  0  0  0  0  0
   -5.9040    5.5106  -24.0314 C   0  0  0  0  0  0  0  0  0  0  0  0
   -6.4091    5.6016  -25.2549 H   0  0  0  0  0  0  0  0  0  0  0  0
  2  1  1  0  0  0
  2  3  1  0  0  0
  3  4  1  0  0  0
  4 19  1  0  0  0
 19 20  2  0  0  0
 20 21  1  0  0  0
 21 22  2  0  0  0
 22 23  1  0  0  0
 23 24  2  0  0  0
 24 25  1  0  0  0
 25 26  2  0  0  0
 26 27  1  0  0  0
 27 28  2  0  0  0
  4  5  1  0  0  0
  5  6  2  0  0  0
  5  7  1  0  0  0
  7  8  1  0  0  0
  8  9  1  0  0  0
  9 29  1  0  0  0
 29 30  1  0  0  0
 30 31  1  0  0  0
 31 32  1  0  0  0
 31 33  1  0  0  0
  9 10  1  0  0  0
 10 11  2  0  0  0
 10 12  1  0  0  0
 12 13  2  0  0  0
 13 14  1  0  0  0
 14 15  2  0  0  0
 15 16  1  0  0  0
 15 17  1  0  0  0
 17 18  2  0  0  0
  7  2  1  0  0  0
 18 12  1  0  0  0
 28 19  1  0  0  0
 18  7  1  0  0  0
 28 23  1  0  0  0
 31 34  1  0  0  0
M  CHG 1  31   1
M  END
> <minimizedAffinity>
-6.91051

> <CNNscore>
0.2406854331

> <CNNaffinity>
5.9950895309

> <CNN_VS>
1.4429306984

> <CNNaffinity_variance>
0.2011171281

$$$$



 34 38  0  0  0  0  0  0  0  0999 V2000
  -10.1240   -0.9761  -23.2561 C   0  0  0  0  0  0  0  0  0  0  0  0
   -9.4194    0.3268  -23.4926 C   0  0  0  0  0  0  0  0  0  0  0  0
   -7.9284    0.1639  -23.5114 C   0  0  0  0  0  0  0  0  0  0  0  0
   -7.3178    1.5126  -23.7527 N   0  0  0  0  0  0  0  0  0  0  0  0
   -8.4315    2.5090  -23.8829 C   0  0  0  0  0  0  0  0  0  0  0  0
   -8.2739    3.9800  -24.1305 O   0  0  0  0  0  0  0  0  0  0  0  0
   -9.7303    1.7762  -23.7222 C   0  0  0  0  0  0  0  0  0  0  0  0
   -9.8862    3.2489  -23.9604 C   0  0  0  0  0  0  0  0  0  0  0  0
  -11.2556    3.8583  -24.0190 N   0  0  0  0  0  0  0  0  0  0  0  0
  -12.4690    2.9951  -23.8394 C   0  0  0  0  0  0  0  0  0  0  0  0
  -13.8384    3.6046  -23.8980 O   0  0  0  0  0  0  0  0  0  0  0  0
  -12.3132    1.5223  -23.6012 C   0  0  0  0  0  0  0  0  0  0  0  0
  -13.5266    0.6591  -23.4216 C   0  0  0  0  0  0  0  0  0  0  0  0
  -13.3708   -0.8136  -23.1834 C   0  0  0  0  0  0  0  0  0  0  0  0
  -12.0014   -1.4231  -23.1248 C   0  0  0  0  0  0  0  0  0  0  0  0
  -11.8456   -2.8959  -22.8866 Cl  0  0  0  0  0  0  0  0  0  0  0  0
  -10.7879   -0.5599  -23.3044 C   0  0  0  0  0  0  0  0  0  0  0  0
  -10.9438    0.9128  -23.5426 C   0  0  0  0  0  0  0  0  0  0  0  0
   -5.8511    1.8123  -23.8470 C   0  0  0  0  0  0  0  0  0  0  0  0
   -5.2572    2.2479  -25.1537 C   0  0  0  0  0  0  0  0  0  0  0  0
   -3.7905    2.5476  -25.2481 N   0  0  0  0  0  0  0  0  0  0  0  0
   -2.9177    2.4117  -24.0357 C   0  0  0  0  0  0  0  0  0  0  0  0
   -3.5116    1.9760  -22.7290 C   0  0  0  0  0  0  0  0  0  0  0  0
   -2.6388    1.8401  -21.5166 C   0  0  0  0  0  0  0  0  0  0  0  0
   -3.2328    1.4045  -20.2100 C   0  0  0  0  0  0  0  0  0  0  0  0
   -4.6995    1.1048  -20.1157 C   0  0  0  0  0  0  0  0  0  0  0  0
   -5.5723    1.2408  -21.3280 C   0  0  0  0  0  0  0  0  0  0  0  0
   -4.9784    1.6764  -22.6346 C   0  0  0  0  0  0  0  0  0  0  0  0
  -11.4114    5.3311  -24.2573 C   0  0  0  0  0  0  0  0  0  0  0  0
  -11.2056    5.8944  -25.6321 C   0  0  0  0  0  0  0  0  0  0  0  0
  -12.2633    5.7182  -26.6809 N   0  0  0  0  0  0  0  0  0  0  0  0
  -13.6170    6.3364  -26.4922 C   0  0  0  0  0  0  0  0  0  0  0  0
  -11.9676    4.9238  -27.9184 C   0  0  0  0  0  0  0  0  0  0  0  0
  -12.9827    5.5984  -27.3941 H   0  0  0  0  0  0  0  0  0  0  0  0
  2  1  1  0  0  0
  2  3  1  0  0  0
  3  4  1  0  0  0
  4 19  1  0  0  0
 19 20  2  0  0  0
 20 21  1  0  0  0
 21 22  2  0  0  0
 22 23  1  0  0  0
 23 24  2  0  0  0
 24 25  1  0  0  0
 25 26  2  0  0  0
 26 27  1  0  0  0
 27 28  2  0  0  0
  4  5  1  0  0  0
  5  6  2  0  0  0
  5  7  1  0  0  0
  7  8  1  0  0  0
  8  9  1  0  0  0
  9 29  1  0  0  0
 29 30  1  0  0  0
 30 31  1  0  0  0
 31 32  1  0  0  0
 31 33  1  0  0  0
  9 10  1  0  0  0
 10 11  2  0  0  0
 10 12  1  0  0  0
 12 13  2  0  0  0
 13 14  1  0  0  0
 14 15  2  0  0  0
 15 16  1  0  0  0
 15 17  1  0  0  0
 17 18  2  0  0  0
  7  2  1  0  0  0
 18 12  1  0  0  0
 28 19  1  0  0  0
 18  7  1  0  0  0
 28 23  1  0  0  0
 31 34  1  0  0  0
M  CHG 1  31   1
M  END
> <minimizedAffinity>
-7.22467

> <CNNscore>
0.2318965793

> <CNNaffinity>
5.8952531815

> <CNN_VS>
1.3670890331

> <CNNaffinity_variance>
0.1190273315

$$$$



 34 38  0  0  0  0  0  0  0  0999 V2000
   -5.6886   -5.5106  -23.2288 C   0  0  0  0  0  0  0  0  0  0  0  0
   -6.3371   -4.2756  -22.6771 C   0  0  0  0  0  0  0  0  0  0  0  0
   -5.4831   -3.6077  -21.6406 C   0  0  0  0  0  0  0  0  0  0  0  0
   -6.2125   -2.3912  -21.1526 N   0  0  0  0  0  0  0  0  0  0  0  0
   -7.5174   -2.3073  -21.8877 C   0  0  0  0  0  0  0  0  0  0  0  0
   -8.5619   -1.2453  -21.7114 O   0  0  0  0  0  0  0  0  0  0  0  0
   -7.5944   -3.4720  -22.8298 C   0  0  0  0  0  0  0  0  0  0  0  0
   -8.7937   -2.5720  -22.8730 C   0  0  0  0  0  0  0  0  0  0  0  0
   -9.9287   -2.8791  -23.8044 N   0  0  0  0  0  0  0  0  0  0  0  0
   -9.8645   -4.0861  -24.6926 C   0  0  0  0  0  0  0  0  0  0  0  0
  -10.9995   -4.3931  -25.6239 O   0  0  0  0  0  0  0  0  0  0  0  0
   -8.6652   -4.9861  -24.6495 C   0  0  0  0  0  0  0  0  0  0  0  0
   -8.6010   -6.1931  -25.5377 C   0  0  0  0  0  0  0  0  0  0  0  0
   -7.4018   -7.0930  -25.4945 C   0  0  0  0  0  0  0  0  0  0  0  0
   -6.2668   -6.7860  -24.5632 C   0  0  0  0  0  0  0  0  0  0  0  0
   -5.0675   -7.6860  -24.5201 Cl  0  0  0  0  0  0  0  0  0  0  0  0
   -6.3310   -5.5790  -23.6750 C   0  0  0  0  0  0  0  0  0  0  0  0
   -7.5302   -4.6790  -23.7181 C   0  0  0  0  0  0  0  0  0  0  0  0
   -5.7231   -1.4277  -20.1124 C   0  0  0  0  0  0  0  0  0  0  0  0
   -6.1774   -1.5656  -18.6896 C   0  0  0  0  0  0  0  0  0  0  0  0
   -5.6879   -0.6021  -17.6493 N   0  0  0  0  0  0  0  0  0  0  0  0
   -4.7441    0.4992  -18.0319 C   0  0  0  0  0  0  0  0  0  0  0  0
   -4.2898    0.6370  -19.4548 C   0  0  0  0  0  0  0  0  0  0  0  0
   -3.3459    1.7383  -19.8374 C   0  0  0  0  0  0  0  0  0  0  0  0
   -2.8917    1.8761  -21.2603 C   0  0  0  0  0  0  0  0  0  0  0  0
   -3.3811    0.9126  -22.3005 C   0  0  0  0  0  0  0  0  0  0  0  0
   -4.3249   -0.1887  -21.9179 C   0  0  0  0  0  0  0  0  0  0  0  0
   -4.7793   -0.3265  -20.4951 C   0  0  0  0  0  0  0  0  0  0  0  0
  -11.1280   -1.9790  -23.8475 C   0  0  0  0  0  0  0  0  0  0  0  0
  -10.9673   -0.5043  -23.6254 C   0  0  0  0  0  0  0  0  0  0  0  0
  -12.1712    0.3492  -23.3568 N   0  0  0  0  0  0  0  0  0  0  0  0
  -13.5481   -0.2187  -23.5351 C   0  0  0  0  0  0  0  0  0  0  0  0
  -11.9982    1.7705  -22.9098 C   0  0  0  0  0  0  0  0  0  0  0  0
  -12.9898    0.9295  -23.1741 H   0  0  0  0  0  0  0  0  0  0  0  0
  2  1  1  0  0  0
  2  3  1  0  0  0
  3  4  1  0  0  0
  4 19  1  0  0  0
 19 20  2  0  0  0
 20 21  1  0  0  0
 21 22  2  0  0  0
 22 23  1  0  0  0
 23 24  2  0  0  0
 24 25  1  0  0  0
 25 26  2  0  0  0
 26 27  1  0  0  0
 27 28  2  0  0  0
  4  5  1  0  0  0
  5  6  2  0  0  0
  5  7  1  0  0  0
  7  8  1  0  0  0
  8  9  1  0  0  0
  9 29  1  0  0  0
 29 30  1  0  0  0
 30 31  1  0  0  0
 31 32  1  0  0  0
 31 33  1  0  0  0
  9 10  1  0  0  0
 10 11  2  0  0  0
 10 12  1  0  0  0
 12 13  2  0  0  0
 13 14  1  0  0  0
 14 15  2  0  0  0
 15 16  1  0  0  0
 15 17  1  0  0  0
 17 18  2  0  0  0
  7  2  1  0  0  0
 18 12  1  0  0  0
 28 19  1  0  0  0
 18  7  1  0  0  0
 28 23  1  0  0  0
 31 34  1  0  0  0
M  CHG 1  31   1
M  END
> <minimizedAffinity>
-8.31640

> <CNNscore>
0.2224882096

> <CNNaffinity>
5.9379487038

> <CNN_VS>
1.3211236000

> <CNNaffinity_variance>
0.3998951614

$$$$



 34 38  0  0  0  0  0  0  0  0999 V2000
  -11.5718    0.2095  -23.6015 C   0  0  0  0  0  0  0  0  0  0  0  0
  -10.2278   -0.4039  -23.8616 C   0  0  0  0  0  0  0  0  0  0  0  0
  -10.2657   -1.9005  -23.7684 C   0  0  0  0  0  0  0  0  0  0  0  0
   -8.8843   -2.4171  -24.0422 N   0  0  0  0  0  0  0  0  0  0  0  0
   -7.9927   -1.2397  -24.3046 C   0  0  0  0  0  0  0  0  0  0  0  0
   -6.5279   -1.2966  -24.6228 O   0  0  0  0  0  0  0  0  0  0  0  0
   -8.8230    0.0045  -24.1930 C   0  0  0  0  0  0  0  0  0  0  0  0
   -7.3824    0.2601  -24.5235 C   0  0  0  0  0  0  0  0  0  0  0  0
   -6.8938    1.6659  -24.7104 N   0  0  0  0  0  0  0  0  0  0  0  0
   -7.8457    2.8161  -24.5668 C   0  0  0  0  0  0  0  0  0  0  0  0
   -7.3570    4.2219  -24.7537 O   0  0  0  0  0  0  0  0  0  0  0  0
   -9.2864    2.5606  -24.2362 C   0  0  0  0  0  0  0  0  0  0  0  0
  -10.2383    3.7109  -24.0925 C   0  0  0  0  0  0  0  0  0  0  0  0
  -11.6789    3.4553  -23.7620 C   0  0  0  0  0  0  0  0  0  0  0  0
  -12.1676    2.0495  -23.5751 C   0  0  0  0  0  0  0  0  0  0  0  0
  -13.6083    1.7940  -23.2445 Cl  0  0  0  0  0  0  0  0  0  0  0  0
  -11.2156    0.8993  -23.7187 C   0  0  0  0  0  0  0  0  0  0  0  0
   -9.7750    1.1548  -24.0493 C   0  0  0  0  0  0  0  0  0  0  0  0
   -8.4677   -3.8580  -24.0520 C   0  0  0  0  0  0  0  0  0  0  0  0
   -7.8005   -4.4540  -22.8480 C   0  0  0  0  0  0  0  0  0  0  0  0
   -7.3838   -5.8949  -22.8577 N   0  0  0  0  0  0  0  0  0  0  0  0
   -7.6344   -6.7399  -24.0715 C   0  0  0  0  0  0  0  0  0  0  0  0
   -8.3016   -6.1439  -25.2755 C   0  0  0  0  0  0  0  0  0  0  0  0
   -8.5522   -6.9889  -26.4893 C   0  0  0  0  0  0  0  0  0  0  0  0
   -9.2195   -6.3929  -27.6933 C   0  0  0  0  0  0  0  0  0  0  0  0
   -9.6361   -4.9520  -27.6835 C   0  0  0  0  0  0  0  0  0  0  0  0
   -9.3855   -4.1070  -26.4697 C   0  0  0  0  0  0  0  0  0  0  0  0
   -8.7183   -4.7029  -25.2658 C   0  0  0  0  0  0  0  0  0  0  0  0
   -5.4531    1.9214  -25.0410 C   0  0  0  0  0  0  0  0  0  0  0  0
   -4.4073    1.8119  -23.9713 C   0  0  0  0  0  0  0  0  0  0  0  0
   -3.2184    0.9199  -24.1734 N   0  0  0  0  0  0  0  0  0  0  0  0
   -1.9870    1.1107  -23.3382 C   0  0  0  0  0  0  0  0  0  0  0  0
   -3.2607   -0.1628  -25.2106 C   0  0  0  0  0  0  0  0  0  0  0  0
   -2.4099    0.3134  -24.3107 H   0  0  0  0  0  0  0  0  0  0  0  0
  2  1  1  0  0  0
  2  3  1  0  0  0
  3  4  1  0  0  0
  4 19  1  0  0  0
 19 20  2  0  0  0
 20 21  1  0  0  0
 21 22  2  0  0  0
 22 23  1  0  0  0
 23 24  2  0  0  0
 24 25  1  0  0  0
 25 26  2  0  0  0
 26 27  1  0  0  0
 27 28  2  0  0  0
  4  5  1  0  0  0
  5  6  2  0  0  0
  5  7  1  0  0  0
  7  8  1  0  0  0
  8  9  1  0  0  0
  9 29  1  0  0  0
 29 30  1  0  0  0
 30 31  1  0  0  0
 31 32  1  0  0  0
 31 33  1  0  0  0
  9 10  1  0  0  0
 10 11  2  0  0  0
 10 12  1  0  0  0
 12 13  2  0  0  0
 13 14  1  0  0  0
 14 15  2  0  0  0
 15 16  1  0  0  0
 15 17  1  0  0  0
 17 18  2  0  0  0
  7  2  1  0  0  0
 18 12  1  0  0  0
 28 19  1  0  0  0
 18  7  1  0  0  0
 28 23  1  0  0  0
 31 34  1  0  0  0
M  CHG 1  31   1
M  END
> <minimizedAffinity>
-6.81554

> <CNNscore>
0.2172508687

> <CNNaffinity>
5.9928383827

> <CNN_VS>
1.3019493818

> <CNNaffinity_variance>
0.0848160461

$$$$



 34 38  0  0  0  0  0  0  0  0999 V2000
  -10.4544    2.4042  -23.3812 C   0  0  0  0  0  0  0  0  0  0  0  0
   -9.2427    1.5434  -23.1783 C   0  0  0  0  0  0  0  0  0  0  0  0
   -7.9882    2.3575  -23.0621 C   0  0  0  0  0  0  0  0  0  0  0  0
   -6.8398    1.4133  -22.8627 N   0  0  0  0  0  0  0  0  0  0  0  0
   -7.3846    0.0158  -22.8557 C   0  0  0  0  0  0  0  0  0  0  0  0
   -6.5847   -1.2415  -22.6839 O   0  0  0  0  0  0  0  0  0  0  0  0
   -8.8697    0.0961  -23.0508 C   0  0  0  0  0  0  0  0  0  0  0  0
   -8.3481   -1.3029  -22.9069 C   0  0  0  0  0  0  0  0  0  0  0  0
   -9.2941   -2.4656  -22.9643 N   0  0  0  0  0  0  0  0  0  0  0  0
  -10.7616   -2.2293  -23.1657 C   0  0  0  0  0  0  0  0  0  0  0  0
  -11.7075   -3.3920  -23.2231 O   0  0  0  0  0  0  0  0  0  0  0  0
  -11.2832   -0.8303  -23.3096 C   0  0  0  0  0  0  0  0  0  0  0  0
  -12.7507   -0.5940  -23.5110 C   0  0  0  0  0  0  0  0  0  0  0  0
  -13.2722    0.8050  -23.6549 C   0  0  0  0  0  0  0  0  0  0  0  0
  -12.3263    1.9677  -23.5975 C   0  0  0  0  0  0  0  0  0  0  0  0
  -12.8479    3.3668  -23.7414 Cl  0  0  0  0  0  0  0  0  0  0  0  0
  -10.8588    1.7315  -23.3961 C   0  0  0  0  0  0  0  0  0  0  0  0
  -10.3373    0.3325  -23.2522 C   0  0  0  0  0  0  0  0  0  0  0  0
   -5.3995    1.7990  -22.6990 C   0  0  0  0  0  0  0  0  0  0  0  0
   -4.8753    2.1848  -21.3477 C   0  0  0  0  0  0  0  0  0  0  0  0
   -3.4351    2.5705  -21.1840 N   0  0  0  0  0  0  0  0  0  0  0  0
   -2.5190    2.5703  -22.3718 C   0  0  0  0  0  0  0  0  0  0  0  0
   -3.0432    2.1844  -23.7232 C   0  0  0  0  0  0  0  0  0  0  0  0
   -2.1271    2.1843  -24.9110 C   0  0  0  0  0  0  0  0  0  0  0  0
   -2.6514    1.7984  -26.2624 C   0  0  0  0  0  0  0  0  0  0  0  0
   -4.0916    1.4127  -26.4260 C   0  0  0  0  0  0  0  0  0  0  0  0
   -5.0077    1.4129  -25.2382 C   0  0  0  0  0  0  0  0  0  0  0  0
   -4.4835    1.7988  -23.8869 C   0  0  0  0  0  0  0  0  0  0  0  0
   -8.7724   -3.8646  -22.8204 C   0  0  0  0  0  0  0  0  0  0  0  0
   -7.9949   -4.4939  -23.9381 C   0  0  0  0  0  0  0  0  0  0  0  0
   -7.8900   -5.9873  -24.0309 N   0  0  0  0  0  0  0  0  0  0  0  0
   -8.4037   -6.7012  -25.2460 C   0  0  0  0  0  0  0  0  0  0  0  0
   -7.2714   -6.7668  -22.9085 C   0  0  0  0  0  0  0  0  0  0  0  0
   -7.8187   -7.0028  -24.0939 H   0  0  0  0  0  0  0  0  0  0  0  0
  2  1  1  0  0  0
  2  3  1  0  0  0
  3  4  1  0  0  0
  4 19  1  0  0  0
 19 20  2  0  0  0
 20 21  1  0  0  0
 21 22  2  0  0  0
 22 23  1  0  0  0
 23 24  2  0  0  0
 24 25  1  0  0  0
 25 26  2  0  0  0
 26 27  1  0  0  0
 27 28  2  0  0  0
  4  5  1  0  0  0
  5  6  2  0  0  0
  5  7  1  0  0  0
  7  8  1  0  0  0
  8  9  1  0  0  0
  9 29  1  0  0  0
 29 30  1  0  0  0
 30 31  1  0  0  0
 31 32  1  0  0  0
 31 33  1  0  0  0
  9 10  1  0  0  0
 10 11  2  0  0  0
 10 12  1  0  0  0
 12 13  2  0  0  0
 13 14  1  0  0  0
 14 15  2  0  0  0
 15 16  1  0  0  0
 15 17  1  0  0  0
 17 18  2  0  0  0
  7  2  1  0  0  0
 18 12  1  0  0  0
 28 19  1  0  0  0
 18  7  1  0  0  0
 28 23  1  0  0  0
 31 34  1  0  0  0
M  CHG 1  31   1
M  END
> <minimizedAffinity>
-6.58396

> <CNNscore>
0.1958211362

> <CNNaffinity>
6.0580024719

> <CNN_VS>
1.1862848997

> <CNNaffinity_variance>
0.0926007032

$$$$



 34 38  0  0  0  0  0  0  0  0999 V2000
   -9.9389   -3.6781  -24.9672 C   0  0  0  0  0  0  0  0  0  0  0  0
   -9.7934   -2.4721  -24.0872 C   0  0  0  0  0  0  0  0  0  0  0  0
  -10.8256   -1.4270  -24.3911 C   0  0  0  0  0  0  0  0  0  0  0  0
  -10.5988   -0.2685  -23.4657 N   0  0  0  0  0  0  0  0  0  0  0  0
   -9.4263   -0.5976  -22.5899 C   0  0  0  0  0  0  0  0  0  0  0  0
   -8.8524    0.2810  -21.5181 O   0  0  0  0  0  0  0  0  0  0  0  0
   -8.9286   -1.9595  -22.9740 C   0  0  0  0  0  0  0  0  0  0  0  0
   -8.1526   -1.3174  -21.8625 C   0  0  0  0  0  0  0  0  0  0  0  0
   -6.9935   -2.0398  -21.2422 N   0  0  0  0  0  0  0  0  0  0  0  0
   -6.6104   -3.4043  -21.7335 C   0  0  0  0  0  0  0  0  0  0  0  0
   -5.4513   -4.1267  -21.1133 O   0  0  0  0  0  0  0  0  0  0  0  0
   -7.3864   -4.0464  -22.8451 C   0  0  0  0  0  0  0  0  0  0  0  0
   -7.0033   -5.4109  -23.3365 C   0  0  0  0  0  0  0  0  0  0  0  0
   -7.7793   -6.0529  -24.4480 C   0  0  0  0  0  0  0  0  0  0  0  0
   -8.9384   -5.3305  -25.0682 C   0  0  0  0  0  0  0  0  0  0  0  0
   -9.7144   -5.9726  -26.1798 Cl  0  0  0  0  0  0  0  0  0  0  0  0
   -9.3215   -3.9661  -24.5769 C   0  0  0  0  0  0  0  0  0  0  0  0
   -8.5455   -3.3240  -23.4654 C   0  0  0  0  0  0  0  0  0  0  0  0
  -11.4031    0.9969  -23.4235 C   0  0  0  0  0  0  0  0  0  0  0  0
  -12.8520    0.9521  -23.0381 C   0  0  0  0  0  0  0  0  0  0  0  0
  -13.6563    2.2175  -22.9959 N   0  0  0  0  0  0  0  0  0  0  0  0
  -13.0117    3.5277  -23.3391 C   0  0  0  0  0  0  0  0  0  0  0  0
  -11.5627    3.5725  -23.7245 C   0  0  0  0  0  0  0  0  0  0  0  0
  -10.9181    4.8828  -24.0677 C   0  0  0  0  0  0  0  0  0  0  0  0
   -9.4692    4.9275  -24.4531 C   0  0  0  0  0  0  0  0  0  0  0  0
   -8.6649    3.6621  -24.4953 C   0  0  0  0  0  0  0  0  0  0  0  0
   -9.3095    2.3519  -24.1521 C   0  0  0  0  0  0  0  0  0  0  0  0
  -10.7584    2.3071  -23.7667 C   0  0  0  0  0  0  0  0  0  0  0  0
   -6.2175   -1.3977  -20.1306 C   0  0  0  0  0  0  0  0  0  0  0  0
   -5.0597   -0.4980  -20.4466 C   0  0  0  0  0  0  0  0  0  0  0  0
   -4.5232    0.4303  -19.3975 N   0  0  0  0  0  0  0  0  0  0  0  0
   -3.4419    1.4101  -19.7451 C   0  0  0  0  0  0  0  0  0  0  0  0
   -5.0679    0.3787  -18.0009 C   0  0  0  0  0  0  0  0  0  0  0  0
   -4.1583    1.0615  -18.6842 H   0  0  0  0  0  0  0  0  0  0  0  0
  2  1  1  0  0  0
  2  3  1  0  0  0
  3  4  1  0  0  0
  4 19  1  0  0  0
 19 20  2  0  0  0
 20 21  1  0  0  0
 21 22  2  0  0  0
 22 23  1  0  0  0
 23 24  2  0  0  0
 24 25  1  0  0  0
 25 26  2  0  0  0
 26 27  1  0  0  0
 27 28  2  0  0  0
  4  5  1  0  0  0
  5  6  2  0  0  0
  5  7  1  0  0  0
  7  8  1  0  0  0
  8  9  1  0  0  0
  9 29  1  0  0  0
 29 30  1  0  0  0
 30 31  1  0  0  0
 31 32  1  0  0  0
 31 33  1  0  0  0
  9 10  1  0  0  0
 10 11  2  0  0  0
 10 12  1  0  0  0
 12 13  2  0  0  0
 13 14  1  0  0  0
 14 15  2  0  0  0
 15 16  1  0  0  0
 15 17  1  0  0  0
 17 18  2  0  0  0
  7  2  1  0  0  0
 18 12  1  0  0  0
 28 19  1  0  0  0
 18  7  1  0  0  0
 28 23  1  0  0  0
 31 34  1  0  0  0
M  CHG 1  31   1
M  END
> <minimizedAffinity>
-8.37587

> <CNNscore>
0.1943198442

> <CNNaffinity>
6.1194915771

> <CNN_VS>
1.1891386509

> <CNNaffinity_variance>
0.0831311867

$$$$
