


 22 25  0  0  0  0  0  0  0  0999 V2000
   -8.5802   -1.1370  -21.3113 O   0  0  0  0  0  0  0  0  0  0  0  0
   -7.6667   -2.1545  -21.9282 C   0  0  0  0  0  0  0  0  0  0  0  0
   -8.1451   -2.9941  -23.0755 N   0  0  0  0  0  0  0  0  0  0  0  0
   -7.2318   -4.0115  -23.6923 C   0  0  0  0  0  0  0  0  0  0  0  0
   -7.7101   -4.8511  -24.8397 C   0  0  0  0  0  0  0  0  0  0  0  0
   -9.1018   -4.6732  -25.3701 C   0  0  0  0  0  0  0  0  0  0  0  0
  -10.0152   -3.6557  -24.7533 C   0  0  0  0  0  0  0  0  0  0  0  0
   -9.5369   -2.8161  -23.6060 C   0  0  0  0  0  0  0  0  0  0  0  0
   -9.5802   -5.5127  -26.5175 C   0  0  0  0  0  0  0  0  0  0  0  0
  -10.6063   -6.4262  -27.1195 C   0  0  0  0  0  0  0  0  0  0  0  0
   -9.3825   -6.0533  -27.9026 C   0  0  0  0  0  0  0  0  0  0  0  0
   -6.2750   -2.3324  -21.3977 C   0  0  0  0  0  0  0  0  0  0  0  0
   -5.7700   -1.4402  -20.3028 C   0  0  0  0  0  0  0  0  0  0  0  0
   -6.2338   -1.6484  -18.8916 C   0  0  0  0  0  0  0  0  0  0  0  0
   -5.7287   -0.7562  -17.7967 N   0  0  0  0  0  0  0  0  0  0  0  0
   -4.7598    0.3443  -18.1130 C   0  0  0  0  0  0  0  0  0  0  0  0
   -4.2960    0.5527  -19.5243 C   0  0  0  0  0  0  0  0  0  0  0  0
   -3.3271    1.6532  -19.8406 C   0  0  0  0  0  0  0  0  0  0  0  0
   -2.8633    1.8614  -21.2517 C   0  0  0  0  0  0  0  0  0  0  0  0
   -3.3684    0.9692  -22.3466 C   0  0  0  0  0  0  0  0  0  0  0  0
   -4.3372   -0.1313  -22.0303 C   0  0  0  0  0  0  0  0  0  0  0  0
   -4.8010   -0.3396  -20.6192 C   0  0  0  0  0  0  0  0  0  0  0  0
  1  2  2  0  0  0
  2 12  1  0  0  0
 12 13  1  0  0  0
 13 14  2  0  0  0
 14 15  1  0  0  0
 15 16  2  0  0  0
 16 17  1  0  0  0
 17 18  2  0  0  0
 18 19  1  0  0  0
 19 20  2  0  0  0
 20 21  1  0  0  0
 21 22  2  0  0  0
  2  3  1  0  0  0
  3  4  1  0  0  0
  4  5  1  0  0  0
  5  6  1  0  0  0
  6  9  1  0  0  0
  9 10  1  0  0  0
 10 11  1  0  0  0
  6  7  1  0  0  0
  7  8  1  0  0  0
 22 13  1  0  0  0
  8  3  1  0  0  0
 22 17  1  0  0  0
 11  9  1  0  0  0
M  END
> <minimizedAffinity>
-6.87742

> <CNNscore>
0.7112733722

> <CNNaffinity>
5.2620725632

> <CNN_VS>
3.7427721024

> <CNNaffinity_variance>
0.1373704523

$$$$



 22 25  0  0  0  0  0  0  0  0999 V2000
   -5.4002   -3.7990  -21.0858 O   0  0  0  0  0  0  0  0  0  0  0  0
   -6.2988   -3.0588  -22.0317 C   0  0  0  0  0  0  0  0  0  0  0  0
   -6.8389   -3.7497  -23.2486 N   0  0  0  0  0  0  0  0  0  0  0  0
   -7.7374   -3.0095  -24.1945 C   0  0  0  0  0  0  0  0  0  0  0  0
   -8.2775   -3.7005  -25.4114 C   0  0  0  0  0  0  0  0  0  0  0  0
   -7.9190   -5.1315  -25.6825 C   0  0  0  0  0  0  0  0  0  0  0  0
   -7.0204   -5.8717  -24.7366 C   0  0  0  0  0  0  0  0  0  0  0  0
   -6.4803   -5.1808  -23.5196 C   0  0  0  0  0  0  0  0  0  0  0  0
   -8.4591   -5.8224  -26.8994 C   0  0  0  0  0  0  0  0  0  0  0  0
   -8.2601   -6.7455  -28.0648 C   0  0  0  0  0  0  0  0  0  0  0  0
   -9.5937   -6.0961  -27.8417 C   0  0  0  0  0  0  0  0  0  0  0  0
   -6.6572   -1.6277  -21.7606 C   0  0  0  0  0  0  0  0  0  0  0  0
   -6.1181   -0.9371  -20.5431 C   0  0  0  0  0  0  0  0  0  0  0  0
   -6.8037   -1.1059  -19.2197 C   0  0  0  0  0  0  0  0  0  0  0  0
   -6.2645   -0.4153  -18.0022 N   0  0  0  0  0  0  0  0  0  0  0  0
   -5.0397    0.4440  -18.1080 C   0  0  0  0  0  0  0  0  0  0  0  0
   -4.3539    0.6128  -19.4314 C   0  0  0  0  0  0  0  0  0  0  0  0
   -3.1291    1.4721  -19.5372 C   0  0  0  0  0  0  0  0  0  0  0  0
   -2.4434    1.6409  -20.8606 C   0  0  0  0  0  0  0  0  0  0  0  0
   -2.9826    0.9503  -22.0781 C   0  0  0  0  0  0  0  0  0  0  0  0
   -4.2075    0.0910  -21.9723 C   0  0  0  0  0  0  0  0  0  0  0  0
   -4.8931   -0.0778  -20.6490 C   0  0  0  0  0  0  0  0  0  0  0  0
  1  2  2  0  0  0
  2 12  1  0  0  0
 12 13  1  0  0  0
 13 14  2  0  0  0
 14 15  1  0  0  0
 15 16  2  0  0  0
 16 17  1  0  0  0
 17 18  2  0  0  0
 18 19  1  0  0  0
 19 20  2  0  0  0
 20 21  1  0  0  0
 21 22  2  0  0  0
  2  3  1  0  0  0
  3  4  1  0  0  0
  4  5  1  0  0  0
  5  6  1  0  0  0
  6  9  1  0  0  0
  9 10  1  0  0  0
 10 11  1  0  0  0
  6  7  1  0  0  0
  7  8  1  0  0  0
 22 13  1  0  0  0
  8  3  1  0  0  0
 22 17  1  0  0  0
 11  9  1  0  0  0
M  END
> <minimizedAffinity>
-6.90268

> <CNNscore>
0.6548990607

> <CNNaffinity>
5.1900610924

> <CNN_VS>
3.3989660740

> <CNNaffinity_variance>
0.0932123661

$$$$



 22 25  0  0  0  0  0  0  0  0999 V2000
   -7.9512    0.8906  -21.6353 O   0  0  0  0  0  0  0  0  0  0  0  0
   -8.1296   -0.1229  -22.7267 C   0  0  0  0  0  0  0  0  0  0  0  0
   -7.5231   -1.4879  -22.5892 N   0  0  0  0  0  0  0  0  0  0  0  0
   -7.7015   -2.5013  -23.6805 C   0  0  0  0  0  0  0  0  0  0  0  0
   -7.0949   -3.8663  -23.5429 C   0  0  0  0  0  0  0  0  0  0  0  0
   -6.3099   -4.2178  -22.3141 C   0  0  0  0  0  0  0  0  0  0  0  0
   -6.1314   -3.2043  -21.2227 C   0  0  0  0  0  0  0  0  0  0  0  0
   -6.7380   -1.8394  -21.3602 C   0  0  0  0  0  0  0  0  0  0  0  0
   -5.7034   -5.5828  -22.1766 C   0  0  0  0  0  0  0  0  0  0  0  0
   -5.5885   -6.8852  -21.4414 C   0  0  0  0  0  0  0  0  0  0  0  0
   -4.7676   -6.6445  -22.6735 C   0  0  0  0  0  0  0  0  0  0  0  0
   -8.9147    0.2286  -23.9555 C   0  0  0  0  0  0  0  0  0  0  0  0
  -10.3233    0.7282  -23.8283 C   0  0  0  0  0  0  0  0  0  0  0  0
  -10.6348    2.1704  -24.0983 C   0  0  0  0  0  0  0  0  0  0  0  0
  -12.0434    2.6700  -23.9710 N   0  0  0  0  0  0  0  0  0  0  0  0
  -13.1405    1.7274  -23.5737 C   0  0  0  0  0  0  0  0  0  0  0  0
  -12.8290    0.2851  -23.3037 C   0  0  0  0  0  0  0  0  0  0  0  0
  -13.9261   -0.6575  -22.9064 C   0  0  0  0  0  0  0  0  0  0  0  0
  -13.6145   -2.0997  -22.6364 C   0  0  0  0  0  0  0  0  0  0  0  0
  -12.2059   -2.5993  -22.7637 C   0  0  0  0  0  0  0  0  0  0  0  0
  -11.1088   -1.6567  -23.1610 C   0  0  0  0  0  0  0  0  0  0  0  0
  -11.4204   -0.2145  -23.4310 C   0  0  0  0  0  0  0  0  0  0  0  0
  1  2  2  0  0  0
  2 12  1  0  0  0
 12 13  1  0  0  0
 13 14  2  0  0  0
 14 15  1  0  0  0
 15 16  2  0  0  0
 16 17  1  0  0  0
 17 18  2  0  0  0
 18 19  1  0  0  0
 19 20  2  0  0  0
 20 21  1  0  0  0
 21 22  2  0  0  0
  2  3  1  0  0  0
  3  4  1  0  0  0
  4  5  1  0  0  0
  5  6  1  0  0  0
  6  9  1  0  0  0
  9 10  1  0  0  0
 10 11  1  0  0  0
  6  7  1  0  0  0
  7  8  1  0  0  0
 22 13  1  0  0  0
  8  3  1  0  0  0
 22 17  1  0  0  0
 11  9  1  0  0  0
M  END
> <minimizedAffinity>
-6.08660

> <CNNscore>
0.4856728315

> <CNNaffinity>
5.2548351288

> <CNN_VS>
2.5521306992

> <CNNaffinity_variance>
0.0469673797

$$$$



 22 25  0  0  0  0  0  0  0  0999 V2000
   -5.0769   -3.5427  -20.2540 O   0  0  0  0  0  0  0  0  0  0  0  0
   -5.9996   -2.9121  -21.2546 C   0  0  0  0  0  0  0  0  0  0  0  0
   -6.5825   -3.7386  -22.3623 N   0  0  0  0  0  0  0  0  0  0  0  0
   -7.5051   -3.1080  -23.3628 C   0  0  0  0  0  0  0  0  0  0  0  0
   -8.0880   -3.9345  -24.4706 C   0  0  0  0  0  0  0  0  0  0  0  0
   -7.7483   -5.3916  -24.5778 C   0  0  0  0  0  0  0  0  0  0  0  0
   -6.8256   -6.0222  -23.5773 C   0  0  0  0  0  0  0  0  0  0  0  0
   -6.2427   -5.1957  -22.4695 C   0  0  0  0  0  0  0  0  0  0  0  0
   -8.3312   -6.2181  -25.6856 C   0  0  0  0  0  0  0  0  0  0  0  0
   -9.4002   -7.1387  -26.1952 C   0  0  0  0  0  0  0  0  0  0  0  0
   -8.2718   -6.7289  -27.0946 C   0  0  0  0  0  0  0  0  0  0  0  0
   -6.3393   -1.4550  -21.1473 C   0  0  0  0  0  0  0  0  0  0  0  0
   -5.3072   -0.4775  -20.6686 C   0  0  0  0  0  0  0  0  0  0  0  0
   -5.2930   -0.0450  -19.2324 C   0  0  0  0  0  0  0  0  0  0  0  0
   -4.2608    0.9325  -18.7537 N   0  0  0  0  0  0  0  0  0  0  0  0
   -3.2430    1.4775  -19.7111 C   0  0  0  0  0  0  0  0  0  0  0  0
   -3.2571    1.0451  -21.1474 C   0  0  0  0  0  0  0  0  0  0  0  0
   -2.2392    1.5901  -22.1049 C   0  0  0  0  0  0  0  0  0  0  0  0
   -2.2535    1.1576  -23.5411 C   0  0  0  0  0  0  0  0  0  0  0  0
   -3.2856    0.1801  -24.0198 C   0  0  0  0  0  0  0  0  0  0  0  0
   -4.3035   -0.3650  -23.0623 C   0  0  0  0  0  0  0  0  0  0  0  0
   -4.2893    0.0675  -21.6261 C   0  0  0  0  0  0  0  0  0  0  0  0
  1  2  2  0  0  0
  2 12  1  0  0  0
 12 13  1  0  0  0
 13 14  2  0  0  0
 14 15  1  0  0  0
 15 16  2  0  0  0
 16 17  1  0  0  0
 17 18  2  0  0  0
 18 19  1  0  0  0
 19 20  2  0  0  0
 20 21  1  0  0  0
 21 22  2  0  0  0
  2  3  1  0  0  0
  3  4  1  0  0  0
  4  5  1  0  0  0
  5  6  1  0  0  0
  6  9  1  0  0  0
  9 10  1  0  0  0
 10 11  1  0  0  0
  6  7  1  0  0  0
  7  8  1  0  0  0
 22 13  1  0  0  0
  8  3  1  0  0  0
 22 17  1  0  0  0
 11  9  1  0  0  0
M  END
> <minimizedAffinity>
-6.45082

> <CNNscore>
0.4818406403

> <CNNaffinity>
4.9301328659

> <CNN_VS>
2.3755383492

> <CNNaffinity_variance>
0.1737400144

$$$$



 22 25  0  0  0  0  0  0  0  0999 V2000
   -7.8669   -3.7803  -22.4717 O   0  0  0  0  0  0  0  0  0  0  0  0
   -7.5430   -2.3158  -22.4546 C   0  0  0  0  0  0  0  0  0  0  0  0
   -8.6230   -1.3057  -22.7066 N   0  0  0  0  0  0  0  0  0  0  0  0
   -8.2990    0.1587  -22.6894 C   0  0  0  0  0  0  0  0  0  0  0  0
   -9.3790    1.1687  -22.9414 C   0  0  0  0  0  0  0  0  0  0  0  0
  -10.7829    0.7143  -23.2105 C   0  0  0  0  0  0  0  0  0  0  0  0
  -11.1069   -0.7503  -23.2276 C   0  0  0  0  0  0  0  0  0  0  0  0
  -10.0269   -1.7603  -22.9757 C   0  0  0  0  0  0  0  0  0  0  0  0
  -11.8629    1.7243  -23.4625 C   0  0  0  0  0  0  0  0  0  0  0  0
  -13.3044    2.1316  -23.3844 C   0  0  0  0  0  0  0  0  0  0  0  0
  -12.2920    3.0664  -23.9770 C   0  0  0  0  0  0  0  0  0  0  0  0
   -6.1391   -1.8613  -22.1855 C   0  0  0  0  0  0  0  0  0  0  0  0
   -5.8053   -1.1845  -20.8891 C   0  0  0  0  0  0  0  0  0  0  0  0
   -6.5921   -1.5031  -19.6524 C   0  0  0  0  0  0  0  0  0  0  0  0
   -6.2584   -0.8263  -18.3561 N   0  0  0  0  0  0  0  0  0  0  0  0
   -5.1378    0.1690  -18.2963 C   0  0  0  0  0  0  0  0  0  0  0  0
   -4.3509    0.4876  -19.5331 C   0  0  0  0  0  0  0  0  0  0  0  0
   -3.2303    1.4829  -19.4734 C   0  0  0  0  0  0  0  0  0  0  0  0
   -2.4435    1.8015  -20.7100 C   0  0  0  0  0  0  0  0  0  0  0  0
   -2.7772    1.1247  -22.0064 C   0  0  0  0  0  0  0  0  0  0  0  0
   -3.8978    0.1294  -22.0661 C   0  0  0  0  0  0  0  0  0  0  0  0
   -4.6846   -0.1892  -20.8294 C   0  0  0  0  0  0  0  0  0  0  0  0
  1  2  2  0  0  0
  2 12  1  0  0  0
 12 13  1  0  0  0
 13 14  2  0  0  0
 14 15  1  0  0  0
 15 16  2  0  0  0
 16 17  1  0  0  0
 17 18  2  0  0  0
 18 19  1  0  0  0
 19 20  2  0  0  0
 20 21  1  0  0  0
 21 22  2  0  0  0
  2  3  1  0  0  0
  3  4  1  0  0  0
  4  5  1  0  0  0
  5  6  1  0  0  0
  6  9  1  0  0  0
  9 10  1  0  0  0
 10 11  1  0  0  0
  6  7  1  0  0  0
  7  8  1  0  0  0
 22 13  1  0  0  0
  8  3  1  0  0  0
 22 17  1  0  0  0
 11  9  1  0  0  0
M  END
> <minimizedAffinity>
-6.95302

> <CNNscore>
0.4647196531

> <CNNaffinity>
5.0636124611

> <CNN_VS>
2.3531601429

> <CNNaffinity_variance>
0.3857021928

$$$$



 22 25  0  0  0  0  0  0  0  0999 V2000
   -7.0253   -0.3567  -18.6742 O   0  0  0  0  0  0  0  0  0  0  0  0
   -6.4779   -0.3684  -20.0708 C   0  0  0  0  0  0  0  0  0  0  0  0
   -5.1351    0.2366  -20.3552 N   0  0  0  0  0  0  0  0  0  0  0  0
   -4.5878    0.2249  -21.7516 C   0  0  0  0  0  0  0  0  0  0  0  0
   -3.2449    0.8299  -22.0360 C   0  0  0  0  0  0  0  0  0  0  0  0
   -2.4495    1.4465  -20.9238 C   0  0  0  0  0  0  0  0  0  0  0  0
   -2.9968    1.4583  -19.5272 C   0  0  0  0  0  0  0  0  0  0  0  0
   -4.3397    0.8533  -19.2429 C   0  0  0  0  0  0  0  0  0  0  0  0
   -1.1067    2.0515  -21.2082 C   0  0  0  0  0  0  0  0  0  0  0  0
    0.1998    2.6025  -20.7188 C   0  0  0  0  0  0  0  0  0  0  0  0
   -0.0873    2.5483  -22.1900 C   0  0  0  0  0  0  0  0  0  0  0  0
   -7.2734   -0.9851  -21.1830 C   0  0  0  0  0  0  0  0  0  0  0  0
   -8.2079   -0.1386  -21.9955 C   0  0  0  0  0  0  0  0  0  0  0  0
   -7.8618    1.2911  -22.2886 C   0  0  0  0  0  0  0  0  0  0  0  0
   -8.7962    2.1376  -23.1012 N   0  0  0  0  0  0  0  0  0  0  0  0
  -10.0768    1.5543  -23.6206 C   0  0  0  0  0  0  0  0  0  0  0  0
  -10.4230    0.1245  -23.3275 C   0  0  0  0  0  0  0  0  0  0  0  0
  -11.7036   -0.4588  -23.8469 C   0  0  0  0  0  0  0  0  0  0  0  0
  -12.0497   -1.8885  -23.5537 C   0  0  0  0  0  0  0  0  0  0  0  0
  -11.1152   -2.7350  -22.7412 C   0  0  0  0  0  0  0  0  0  0  0  0
   -9.8346   -2.1517  -22.2218 C   0  0  0  0  0  0  0  0  0  0  0  0
   -9.4885   -0.7219  -22.5149 C   0  0  0  0  0  0  0  0  0  0  0  0
  1  2  2  0  0  0
  2 12  1  0  0  0
 12 13  1  0  0  0
 13 14  2  0  0  0
 14 15  1  0  0  0
 15 16  2  0  0  0
 16 17  1  0  0  0
 17 18  2  0  0  0
 18 19  1  0  0  0
 19 20  2  0  0  0
 20 21  1  0  0  0
 21 22  2  0  0  0
  2  3  1  0  0  0
  3  4  1  0  0  0
  4  5  1  0  0  0
  5  6  1  0  0  0
  6  9  1  0  0  0
  9 10  1  0  0  0
 10 11  1  0  0  0
  6  7  1  0  0  0
  7  8  1  0  0  0
 22 13  1  0  0  0
  8  3  1  0  0  0
 22 17  1  0  0  0
 11  9  1  0  0  0
M  END
> <minimizedAffinity>
-6.18900

> <CNNscore>
0.4530982375

> <CNNaffinity>
4.9148330688

> <CNN_VS>
2.2269022465

> <CNNaffinity_variance>
0.2435652316

$$$$



 22 25  0  0  0  0  0  0  0  0999 V2000
  -11.9287    0.3731  -23.8636 O   0  0  0  0  0  0  0  0  0  0  0  0
  -10.6961    1.1819  -23.5866 C   0  0  0  0  0  0  0  0  0  0  0  0
   -9.5806    0.5945  -22.7738 N   0  0  0  0  0  0  0  0  0  0  0  0
   -8.3480    1.4032  -22.4968 C   0  0  0  0  0  0  0  0  0  0  0  0
   -7.2326    0.8158  -21.6840 C   0  0  0  0  0  0  0  0  0  0  0  0
   -7.3496   -0.5803  -21.1482 C   0  0  0  0  0  0  0  0  0  0  0  0
   -8.5822   -1.3891  -21.4252 C   0  0  0  0  0  0  0  0  0  0  0  0
   -9.6977   -0.8017  -22.2380 C   0  0  0  0  0  0  0  0  0  0  0  0
   -6.2342   -1.1677  -20.3354 C   0  0  0  0  0  0  0  0  0  0  0  0
   -5.4648   -2.3637  -19.8583 C   0  0  0  0  0  0  0  0  0  0  0  0
   -5.0715   -0.9891  -19.4047 C   0  0  0  0  0  0  0  0  0  0  0  0
  -10.5790    2.5780  -24.1224 C   0  0  0  0  0  0  0  0  0  0  0  0
  -11.7188    3.5403  -23.9639 C   0  0  0  0  0  0  0  0  0  0  0  0
  -12.4985    3.5748  -22.6830 C   0  0  0  0  0  0  0  0  0  0  0  0
  -13.6383    4.5370  -22.5245 N   0  0  0  0  0  0  0  0  0  0  0  0
  -13.9983    5.4647  -23.6469 C   0  0  0  0  0  0  0  0  0  0  0  0
  -13.2185    5.4302  -24.9278 C   0  0  0  0  0  0  0  0  0  0  0  0
  -13.5785    6.3578  -26.0502 C   0  0  0  0  0  0  0  0  0  0  0  0
  -12.7987    6.3233  -27.3311 C   0  0  0  0  0  0  0  0  0  0  0  0
  -11.6590    5.3611  -27.4896 C   0  0  0  0  0  0  0  0  0  0  0  0
  -11.2990    4.4334  -26.3672 C   0  0  0  0  0  0  0  0  0  0  0  0
  -12.0787    4.4680  -25.0864 C   0  0  0  0  0  0  0  0  0  0  0  0
  1  2  2  0  0  0
  2 12  1  0  0  0
 12 13  1  0  0  0
 13 14  2  0  0  0
 14 15  1  0  0  0
 15 16  2  0  0  0
 16 17  1  0  0  0
 17 18  2  0  0  0
 18 19  1  0  0  0
 19 20  2  0  0  0
 20 21  1  0  0  0
 21 22  2  0  0  0
  2  3  1  0  0  0
  3  4  1  0  0  0
  4  5  1  0  0  0
  5  6  1  0  0  0
  6  9  1  0  0  0
  9 10  1  0  0  0
 10 11  1  0  0  0
  6  7  1  0  0  0
  7  8  1  0  0  0
 22 13  1  0  0  0
  8  3  1  0  0  0
 22 17  1  0  0  0
 11  9  1  0  0  0
M  END
> <minimizedAffinity>
-5.99833

> <CNNscore>
0.4448896646

> <CNNaffinity>
4.8444204330

> <CNN_VS>
2.1552326679

> <CNNaffinity_variance>
0.0743198097

$$$$



 22 25  0  0  0  0  0  0  0  0999 V2000
  -11.5510   -3.3792  -23.5844 O   0  0  0  0  0  0  0  0  0  0  0  0
  -10.6577   -2.1947  -23.8060 C   0  0  0  0  0  0  0  0  0  0  0  0
  -11.2156   -0.8058  -23.7079 N   0  0  0  0  0  0  0  0  0  0  0  0
  -10.3225    0.3787  -23.9295 C   0  0  0  0  0  0  0  0  0  0  0  0
  -10.8804    1.7676  -23.8313 C   0  0  0  0  0  0  0  0  0  0  0  0
  -12.3315    1.9720  -23.5115 C   0  0  0  0  0  0  0  0  0  0  0  0
  -13.2248    0.7875  -23.2898 C   0  0  0  0  0  0  0  0  0  0  0  0
  -12.6669   -0.6014  -23.3880 C   0  0  0  0  0  0  0  0  0  0  0  0
  -12.8895    3.3610  -23.4133 C   0  0  0  0  0  0  0  0  0  0  0  0
  -13.1686    4.5947  -22.6072 C   0  0  0  0  0  0  0  0  0  0  0  0
  -13.5767    4.5327  -24.0493 C   0  0  0  0  0  0  0  0  0  0  0  0
   -9.2066   -2.3991  -24.1259 C   0  0  0  0  0  0  0  0  0  0  0  0
   -8.6237   -3.7812  -24.1153 C   0  0  0  0  0  0  0  0  0  0  0  0
   -7.9133   -4.2862  -22.8945 C   0  0  0  0  0  0  0  0  0  0  0  0
   -7.3304   -5.6682  -22.8839 N   0  0  0  0  0  0  0  0  0  0  0  0
   -7.4579   -6.5453  -24.0940 C   0  0  0  0  0  0  0  0  0  0  0  0
   -8.1683   -6.0403  -25.3149 C   0  0  0  0  0  0  0  0  0  0  0  0
   -8.2957   -6.9174  -26.5250 C   0  0  0  0  0  0  0  0  0  0  0  0
   -9.0061   -6.4124  -27.7457 C   0  0  0  0  0  0  0  0  0  0  0  0
   -9.5890   -5.0303  -27.7564 C   0  0  0  0  0  0  0  0  0  0  0  0
   -9.4615   -4.1532  -26.5462 C   0  0  0  0  0  0  0  0  0  0  0  0
   -8.7512   -4.6582  -25.3255 C   0  0  0  0  0  0  0  0  0  0  0  0
  1  2  2  0  0  0
  2 12  1  0  0  0
 12 13  1  0  0  0
 13 14  2  0  0  0
 14 15  1  0  0  0
 15 16  2  0  0  0
 16 17  1  0  0  0
 17 18  2  0  0  0
 18 19  1  0  0  0
 19 20  2  0  0  0
 20 21  1  0  0  0
 21 22  2  0  0  0
  2  3  1  0  0  0
  3  4  1  0  0  0
  4  5  1  0  0  0
  5  6  1  0  0  0
  6  9  1  0  0  0
  9 10  1  0  0  0
 10 11  1  0  0  0
  6  7  1  0  0  0
  7  8  1  0  0  0
 22 13  1  0  0  0
  8  3  1  0  0  0
 22 17  1  0  0  0
 11  9  1  0  0  0
M  END
> <minimizedAffinity>
-6.68701

> <CNNscore>
0.4319069982

> <CNNaffinity>
4.9582695961

> <CNN_VS>
2.1415114403

> <CNNaffinity_variance>
0.3651133478

$$$$



 22 25  0  0  0  0  0  0  0  0999 V2000
   -7.9421   -0.8615  -20.1227 O   0  0  0  0  0  0  0  0  0  0  0  0
   -7.1918   -0.2556  -21.2716 C   0  0  0  0  0  0  0  0  0  0  0  0
   -5.8219    0.3157  -21.0550 N   0  0  0  0  0  0  0  0  0  0  0  0
   -5.0717    0.9216  -22.2039 C   0  0  0  0  0  0  0  0  0  0  0  0
   -3.7018    1.4929  -21.9872 C   0  0  0  0  0  0  0  0  0  0  0  0
   -3.0821    1.4584  -20.6216 C   0  0  0  0  0  0  0  0  0  0  0  0
   -3.8324    0.8525  -19.4726 C   0  0  0  0  0  0  0  0  0  0  0  0
   -5.2023    0.2812  -19.6893 C   0  0  0  0  0  0  0  0  0  0  0  0
   -1.7122    2.0297  -20.4050 C   0  0  0  0  0  0  0  0  0  0  0  0
   -0.2349    1.8335  -20.2347 C   0  0  0  0  0  0  0  0  0  0  0  0
   -0.8169    3.2156  -20.2000 C   0  0  0  0  0  0  0  0  0  0  0  0
   -7.8115   -0.2211  -22.6372 C   0  0  0  0  0  0  0  0  0  0  0  0
   -9.0489   -1.0204  -22.9198 C   0  0  0  0  0  0  0  0  0  0  0  0
   -8.9712   -2.5156  -23.0117 C   0  0  0  0  0  0  0  0  0  0  0  0
  -10.2086   -3.3149  -23.2943 N   0  0  0  0  0  0  0  0  0  0  0  0
  -11.5237   -2.6191  -23.4849 C   0  0  0  0  0  0  0  0  0  0  0  0
  -11.6015   -1.1239  -23.3929 C   0  0  0  0  0  0  0  0  0  0  0  0
  -12.9165   -0.4281  -23.5835 C   0  0  0  0  0  0  0  0  0  0  0  0
  -12.9942    1.0670  -23.4915 C   0  0  0  0  0  0  0  0  0  0  0  0
  -11.7568    1.8664  -23.2089 C   0  0  0  0  0  0  0  0  0  0  0  0
  -10.4417    1.1706  -23.0183 C   0  0  0  0  0  0  0  0  0  0  0  0
  -10.3640   -0.3246  -23.1103 C   0  0  0  0  0  0  0  0  0  0  0  0
  1  2  2  0  0  0
  2 12  1  0  0  0
 12 13  1  0  0  0
 13 14  2  0  0  0
 14 15  1  0  0  0
 15 16  2  0  0  0
 16 17  1  0  0  0
 17 18  2  0  0  0
 18 19  1  0  0  0
 19 20  2  0  0  0
 20 21  1  0  0  0
 21 22  2  0  0  0
  2  3  1  0  0  0
  3  4  1  0  0  0
  4  5  1  0  0  0
  5  6  1  0  0  0
  6  9  1  0  0  0
  9 10  1  0  0  0
 10 11  1  0  0  0
  6  7  1  0  0  0
  7  8  1  0  0  0
 22 13  1  0  0  0
  8  3  1  0  0  0
 22 17  1  0  0  0
 11  9  1  0  0  0
M  END
> <minimizedAffinity>
-6.46659

> <CNNscore>
0.4191625416

> <CNNaffinity>
4.7260460854

> <CNN_VS>
1.9809814692

> <CNNaffinity_variance>
0.1514203697

$$$$
