


 22 25  0  0  0  0  0  0  0  0999 V2000
    8.5470    1.7596   21.1354 O   0  0  0  0  0  0  0  0  0  0  0  0
    8.3784    0.3466   21.6098 C   0  0  0  0  0  0  0  0  0  0  0  0
    9.3820   -0.2540   22.5489 N   0  0  0  0  0  0  0  0  0  0  0  0
    9.2134   -1.6670   23.0233 C   0  0  0  0  0  0  0  0  0  0  0  0
   10.2170   -2.2676   23.9625 C   0  0  0  0  0  0  0  0  0  0  0  0
   11.3892   -1.4553   24.4273 C   0  0  0  0  0  0  0  0  0  0  0  0
   11.5578   -0.0422   23.9529 C   0  0  0  0  0  0  0  0  0  0  0  0
   10.5542    0.5584   23.0137 C   0  0  0  0  0  0  0  0  0  0  0  0
   12.3928   -2.0559   25.3665 C   0  0  0  0  0  0  0  0  0  0  0  0
   12.7473   -3.0686   26.4147 C   0  0  0  0  0  0  0  0  0  0  0  0
   13.7764   -2.0835   25.9450 C   0  0  0  0  0  0  0  0  0  0  0  0
    7.2062   -0.4658   21.1449 C   0  0  0  0  0  0  0  0  0  0  0  0
    6.3247    0.0500   20.0464 C   0  0  0  0  0  0  0  0  0  0  0  0
    6.4933   -0.4621   18.6466 C   0  0  0  0  0  0  0  0  0  0  0  0
    5.6117    0.0537   17.5481 N   0  0  0  0  0  0  0  0  0  0  0  0
    4.5615    1.0815   17.8493 C   0  0  0  0  0  0  0  0  0  0  0  0
    4.3929    1.5936   19.2491 C   0  0  0  0  0  0  0  0  0  0  0  0
    3.3427    2.6213   19.5503 C   0  0  0  0  0  0  0  0  0  0  0  0
    3.1741    3.1334   20.9500 C   0  0  0  0  0  0  0  0  0  0  0  0
    4.0557    2.6176   22.0486 C   0  0  0  0  0  0  0  0  0  0  0  0
    5.1059    1.5898   21.7474 C   0  0  0  0  0  0  0  0  0  0  0  0
    5.2745    1.0778   20.3477 C   0  0  0  0  0  0  0  0  0  0  0  0
  1  2  2  0  0  0
  2 12  1  0  0  0
 12 13  1  0  0  0
 13 14  2  0  0  0
 14 15  1  0  0  0
 15 16  2  0  0  0
 16 17  1  0  0  0
 17 18  2  0  0  0
 18 19  1  0  0  0
 19 20  2  0  0  0
 20 21  1  0  0  0
 21 22  2  0  0  0
  2  3  1  0  0  0
  3  4  1  0  0  0
  4  5  1  0  0  0
  5  6  1  0  0  0
  6  9  1  0  0  0
  9 10  1  0  0  0
 10 11  1  0  0  0
  6  7  1  0  0  0
  7  8  1  0  0  0
 22 13  1  0  0  0
  8  3  1  0  0  0
 22 17  1  0  0  0
 11  9  1  0  0  0
M  END
> <minimizedAffinity>
-7.76319

> <CNNscore>
0.8283297420

> <CNNaffinity>
5.7021169662

> <CNN_VS>
4.7232332230

> <CNNaffinity_variance>
0.1801338047

$$$$



 22 25  0  0  0  0  0  0  0  0999 V2000
    7.0013   -1.3063   22.4648 O   0  0  0  0  0  0  0  0  0  0  0  0
    7.6874   -2.0971   23.5390 C   0  0  0  0  0  0  0  0  0  0  0  0
    7.0678   -2.2079   24.9005 N   0  0  0  0  0  0  0  0  0  0  0  0
    7.7538   -2.9987   25.9747 C   0  0  0  0  0  0  0  0  0  0  0  0
    7.1341   -3.1095   27.3362 C   0  0  0  0  0  0  0  0  0  0  0  0
    5.8284   -2.4295   27.6235 C   0  0  0  0  0  0  0  0  0  0  0  0
    5.1422   -1.6387   26.5493 C   0  0  0  0  0  0  0  0  0  0  0  0
    5.7619   -1.5279   25.1878 C   0  0  0  0  0  0  0  0  0  0  0  0
    5.2087   -2.5403   28.9851 C   0  0  0  0  0  0  0  0  0  0  0  0
    5.2959   -2.3550   30.4710 C   0  0  0  0  0  0  0  0  0  0  0  0
    4.0481   -2.9175   29.8573 C   0  0  0  0  0  0  0  0  0  0  0  0
    8.9932   -2.7770   23.2517 C   0  0  0  0  0  0  0  0  0  0  0  0
   10.2754   -2.0027   23.3309 C   0  0  0  0  0  0  0  0  0  0  0  0
   10.5668   -0.9293   22.3245 C   0  0  0  0  0  0  0  0  0  0  0  0
   11.8490   -0.1550   22.4037 N   0  0  0  0  0  0  0  0  0  0  0  0
   12.8399   -0.4540   23.4893 C   0  0  0  0  0  0  0  0  0  0  0  0
   12.5486   -1.5274   24.4959 C   0  0  0  0  0  0  0  0  0  0  0  0
   13.5395   -1.8264   25.5815 C   0  0  0  0  0  0  0  0  0  0  0  0
   13.2481   -2.8997   26.5880 C   0  0  0  0  0  0  0  0  0  0  0  0
   11.9659   -3.6741   26.5087 C   0  0  0  0  0  0  0  0  0  0  0  0
   10.9750   -3.3751   25.4231 C   0  0  0  0  0  0  0  0  0  0  0  0
   11.2663   -2.3017   24.4166 C   0  0  0  0  0  0  0  0  0  0  0  0
  1  2  2  0  0  0
  2 12  1  0  0  0
 12 13  1  0  0  0
 13 14  2  0  0  0
 14 15  1  0  0  0
 15 16  2  0  0  0
 16 17  1  0  0  0
 17 18  2  0  0  0
 18 19  1  0  0  0
 19 20  2  0  0  0
 20 21  1  0  0  0
 21 22  2  0  0  0
  2  3  1  0  0  0
  3  4  1  0  0  0
  4  5  1  0  0  0
  5  6  1  0  0  0
  6  9  1  0  0  0
  9 10  1  0  0  0
 10 11  1  0  0  0
  6  7  1  0  0  0
  7  8  1  0  0  0
 22 13  1  0  0  0
  8  3  1  0  0  0
 22 17  1  0  0  0
 11  9  1  0  0  0
M  END
> <minimizedAffinity>
-6.32715

> <CNNscore>
0.7700738311

> <CNNaffinity>
5.7425394058

> <CNN_VS>
4.4221792221

> <CNNaffinity_variance>
0.1128658205

$$$$



 22 25  0  0  0  0  0  0  0  0999 V2000
    8.3399   -0.9778   23.1287 O   0  0  0  0  0  0  0  0  0  0  0  0
    9.7617   -0.5460   22.9233 C   0  0  0  0  0  0  0  0  0  0  0  0
   10.1014    0.9139   22.8667 N   0  0  0  0  0  0  0  0  0  0  0  0
   11.5231    1.3458   22.6614 C   0  0  0  0  0  0  0  0  0  0  0  0
   11.8627    2.8058   22.6048 C   0  0  0  0  0  0  0  0  0  0  0  0
   10.7807    3.8338   22.7535 C   0  0  0  0  0  0  0  0  0  0  0  0
    9.3589    3.4020   22.9589 C   0  0  0  0  0  0  0  0  0  0  0  0
    9.0192    1.9420   23.0155 C   0  0  0  0  0  0  0  0  0  0  0  0
   11.1203    5.2938   22.6969 C   0  0  0  0  0  0  0  0  0  0  0  0
   11.9502    6.4139   22.1433 C   0  0  0  0  0  0  0  0  0  0  0  0
   10.8787    6.7023   23.1526 C   0  0  0  0  0  0  0  0  0  0  0  0
   10.8438   -1.5741   22.7746 C   0  0  0  0  0  0  0  0  0  0  0  0
   11.6068   -2.0396   23.9792 C   0  0  0  0  0  0  0  0  0  0  0  0
   13.0946   -1.8594   24.0403 C   0  0  0  0  0  0  0  0  0  0  0  0
   13.8577   -2.3249   25.2449 N   0  0  0  0  0  0  0  0  0  0  0  0
   13.1328   -2.9706   26.3884 C   0  0  0  0  0  0  0  0  0  0  0  0
   11.6449   -3.1508   26.3273 C   0  0  0  0  0  0  0  0  0  0  0  0
   10.9201   -3.7965   27.4709 C   0  0  0  0  0  0  0  0  0  0  0  0
    9.4322   -3.9766   27.4098 C   0  0  0  0  0  0  0  0  0  0  0  0
    8.6692   -3.5111   26.2052 C   0  0  0  0  0  0  0  0  0  0  0  0
    9.3940   -2.8654   25.0616 C   0  0  0  0  0  0  0  0  0  0  0  0
   10.8819   -2.6853   25.1227 C   0  0  0  0  0  0  0  0  0  0  0  0
  1  2  2  0  0  0
  2 12  1  0  0  0
 12 13  1  0  0  0
 13 14  2  0  0  0
 14 15  1  0  0  0
 15 16  2  0  0  0
 16 17  1  0  0  0
 17 18  2  0  0  0
 18 19  1  0  0  0
 19 20  2  0  0  0
 20 21  1  0  0  0
 21 22  2  0  0  0
  2  3  1  0  0  0
  3  4  1  0  0  0
  4  5  1  0  0  0
  5  6  1  0  0  0
  6  9  1  0  0  0
  9 10  1  0  0  0
 10 11  1  0  0  0
  6  7  1  0  0  0
  7  8  1  0  0  0
 22 13  1  0  0  0
  8  3  1  0  0  0
 22 17  1  0  0  0
 11  9  1  0  0  0
M  END
> <minimizedAffinity>
-6.92656

> <CNNscore>
0.7208655477

> <CNNaffinity>
5.8012471199

> <CNN_VS>
4.1819190979

> <CNNaffinity_variance>
0.0949478969

$$$$



 22 25  0  0  0  0  0  0  0  0999 V2000
    6.4758   -1.9927   21.9194 O   0  0  0  0  0  0  0  0  0  0  0  0
    7.6061   -1.0107   22.0096 C   0  0  0  0  0  0  0  0  0  0  0  0
    8.8014   -1.3191   22.8618 N   0  0  0  0  0  0  0  0  0  0  0  0
    9.9317   -0.3372   22.9520 C   0  0  0  0  0  0  0  0  0  0  0  0
   11.1269   -0.6456   23.8042 C   0  0  0  0  0  0  0  0  0  0  0  0
   11.1919   -1.9360   24.5662 C   0  0  0  0  0  0  0  0  0  0  0  0
   10.0615   -2.9180   24.4761 C   0  0  0  0  0  0  0  0  0  0  0  0
    8.8663   -2.6096   23.6238 C   0  0  0  0  0  0  0  0  0  0  0  0
   12.3871   -2.2444   25.4185 C   0  0  0  0  0  0  0  0  0  0  0  0
   13.7924   -1.9387   25.8445 C   0  0  0  0  0  0  0  0  0  0  0  0
   13.0519   -3.0843   26.4684 C   0  0  0  0  0  0  0  0  0  0  0  0
    7.5412    0.2797   21.2476 C   0  0  0  0  0  0  0  0  0  0  0  0
    6.5743    0.4316   20.1109 C   0  0  0  0  0  0  0  0  0  0  0  0
    6.7450   -0.3881   18.8664 C   0  0  0  0  0  0  0  0  0  0  0  0
    5.7781   -0.2362   17.7298 N   0  0  0  0  0  0  0  0  0  0  0  0
    4.6405    0.7355   17.8376 C   0  0  0  0  0  0  0  0  0  0  0  0
    4.4698    1.5554   19.0821 C   0  0  0  0  0  0  0  0  0  0  0  0
    3.3322    2.5271   19.1899 C   0  0  0  0  0  0  0  0  0  0  0  0
    3.1615    3.3468   20.4344 C   0  0  0  0  0  0  0  0  0  0  0  0
    4.1284    3.1949   21.5711 C   0  0  0  0  0  0  0  0  0  0  0  0
    5.2660    2.2232   21.4633 C   0  0  0  0  0  0  0  0  0  0  0  0
    5.4367    1.4034   20.2188 C   0  0  0  0  0  0  0  0  0  0  0  0
  1  2  2  0  0  0
  2 12  1  0  0  0
 12 13  1  0  0  0
 13 14  2  0  0  0
 14 15  1  0  0  0
 15 16  2  0  0  0
 16 17  1  0  0  0
 17 18  2  0  0  0
 18 19  1  0  0  0
 19 20  2  0  0  0
 20 21  1  0  0  0
 21 22  2  0  0  0
  2  3  1  0  0  0
  3  4  1  0  0  0
  4  5  1  0  0  0
  5  6  1  0  0  0
  6  9  1  0  0  0
  9 10  1  0  0  0
 10 11  1  0  0  0
  6  7  1  0  0  0
  7  8  1  0  0  0
 22 13  1  0  0  0
  8  3  1  0  0  0
 22 17  1  0  0  0
 11  9  1  0  0  0
M  END
> <minimizedAffinity>
-7.54649

> <CNNscore>
0.7176195979

> <CNNaffinity>
5.4897794724

> <CNN_VS>
3.9395732880

> <CNNaffinity_variance>
0.0626973882

$$$$



 22 25  0  0  0  0  0  0  0  0999 V2000
    7.9312   -4.5325   24.7847 O   0  0  0  0  0  0  0  0  0  0  0  0
    8.2244   -3.1379   24.3165 C   0  0  0  0  0  0  0  0  0  0  0  0
    7.6759   -1.9628   25.0704 N   0  0  0  0  0  0  0  0  0  0  0  0
    7.9691   -0.5682   24.6023 C   0  0  0  0  0  0  0  0  0  0  0  0
    7.4206    0.6068   25.3562 C   0  0  0  0  0  0  0  0  0  0  0  0
    6.5790    0.3873   26.5783 C   0  0  0  0  0  0  0  0  0  0  0  0
    6.2858   -1.0073   27.0464 C   0  0  0  0  0  0  0  0  0  0  0  0
    6.8342   -2.1824   26.2925 C   0  0  0  0  0  0  0  0  0  0  0  0
    6.0305    1.5624   27.3322 C   0  0  0  0  0  0  0  0  0  0  0  0
    5.1430    2.1169   28.4068 C   0  0  0  0  0  0  0  0  0  0  0  0
    5.9681    3.0431   27.5634 C   0  0  0  0  0  0  0  0  0  0  0  0
    9.0660   -2.9184   23.0945 C   0  0  0  0  0  0  0  0  0  0  0  0
   10.3347   -2.1239   23.1903 C   0  0  0  0  0  0  0  0  0  0  0  0
   10.6552   -1.0938   22.1481 C   0  0  0  0  0  0  0  0  0  0  0  0
   11.9239   -0.2993   22.2440 N   0  0  0  0  0  0  0  0  0  0  0  0
   12.8721   -0.5349   23.3821 C   0  0  0  0  0  0  0  0  0  0  0  0
   12.5517   -1.5650   24.4244 C   0  0  0  0  0  0  0  0  0  0  0  0
   13.4999   -1.8005   25.5625 C   0  0  0  0  0  0  0  0  0  0  0  0
   13.1794   -2.8305   26.6047 C   0  0  0  0  0  0  0  0  0  0  0  0
   11.9107   -3.6250   26.5089 C   0  0  0  0  0  0  0  0  0  0  0  0
   10.9625   -3.3895   25.3707 C   0  0  0  0  0  0  0  0  0  0  0  0
   11.2830   -2.3595   24.3285 C   0  0  0  0  0  0  0  0  0  0  0  0
  1  2  2  0  0  0
  2 12  1  0  0  0
 12 13  1  0  0  0
 13 14  2  0  0  0
 14 15  1  0  0  0
 15 16  2  0  0  0
 16 17  1  0  0  0
 17 18  2  0  0  0
 18 19  1  0  0  0
 19 20  2  0  0  0
 20 21  1  0  0  0
 21 22  2  0  0  0
  2  3  1  0  0  0
  3  4  1  0  0  0
  4  5  1  0  0  0
  5  6  1  0  0  0
  6  9  1  0  0  0
  9 10  1  0  0  0
 10 11  1  0  0  0
  6  7  1  0  0  0
  7  8  1  0  0  0
 22 13  1  0  0  0
  8  3  1  0  0  0
 22 17  1  0  0  0
 11  9  1  0  0  0
M  END
> <minimizedAffinity>
-6.19060

> <CNNscore>
0.6748568416

> <CNNaffinity>
5.4753947258

> <CNN_VS>
3.6951076984

> <CNNaffinity_variance>
0.0677424073

$$$$



 22 25  0  0  0  0  0  0  0  0999 V2000
    8.6582    0.5014   21.3113 O   0  0  0  0  0  0  0  0  0  0  0  0
    8.3379   -0.3889   22.4753 C   0  0  0  0  0  0  0  0  0  0  0  0
    7.8219    0.2037   23.7530 N   0  0  0  0  0  0  0  0  0  0  0  0
    7.5017   -0.6865   24.9170 C   0  0  0  0  0  0  0  0  0  0  0  0
    6.9856   -0.0940   26.1947 C   0  0  0  0  0  0  0  0  0  0  0  0
    6.7897    1.3888   26.3085 C   0  0  0  0  0  0  0  0  0  0  0  0
    7.1099    2.2791   25.1444 C   0  0  0  0  0  0  0  0  0  0  0  0
    7.6260    1.6865   23.8667 C   0  0  0  0  0  0  0  0  0  0  0  0
    6.2736    1.9813   27.5862 C   0  0  0  0  0  0  0  0  0  0  0  0
    6.1952    1.9715   29.0840 C   0  0  0  0  0  0  0  0  0  0  0  0
    5.4582    3.0175   28.3013 C   0  0  0  0  0  0  0  0  0  0  0  0
    8.5338   -1.8716   22.3616 C   0  0  0  0  0  0  0  0  0  0  0  0
    9.1857   -2.6300   23.4796 C   0  0  0  0  0  0  0  0  0  0  0  0
    8.4694   -3.7798   24.1236 C   0  0  0  0  0  0  0  0  0  0  0  0
    9.1213   -4.5381   25.2417 N   0  0  0  0  0  0  0  0  0  0  0  0
   10.4895   -4.1466   25.7157 C   0  0  0  0  0  0  0  0  0  0  0  0
   11.2059   -2.9968   25.0717 C   0  0  0  0  0  0  0  0  0  0  0  0
   12.5740   -2.6053   25.5457 C   0  0  0  0  0  0  0  0  0  0  0  0
   13.2904   -1.4555   24.9017 C   0  0  0  0  0  0  0  0  0  0  0  0
   12.6385   -0.6971   23.7837 C   0  0  0  0  0  0  0  0  0  0  0  0
   11.2703   -1.0886   23.3097 C   0  0  0  0  0  0  0  0  0  0  0  0
   10.5540   -2.2384   23.9537 C   0  0  0  0  0  0  0  0  0  0  0  0
  1  2  2  0  0  0
  2 12  1  0  0  0
 12 13  1  0  0  0
 13 14  2  0  0  0
 14 15  1  0  0  0
 15 16  2  0  0  0
 16 17  1  0  0  0
 17 18  2  0  0  0
 18 19  1  0  0  0
 19 20  2  0  0  0
 20 21  1  0  0  0
 21 22  2  0  0  0
  2  3  1  0  0  0
  3  4  1  0  0  0
  4  5  1  0  0  0
  5  6  1  0  0  0
  6  9  1  0  0  0
  9 10  1  0  0  0
 10 11  1  0  0  0
  6  7  1  0  0  0
  7  8  1  0  0  0
 22 13  1  0  0  0
  8  3  1  0  0  0
 22 17  1  0  0  0
 11  9  1  0  0  0
M  END
> <minimizedAffinity>
-6.08504

> <CNNscore>
0.6671140194

> <CNNaffinity>
5.5604286194

> <CNN_VS>
3.7094399929

> <CNNaffinity_variance>
0.0726797655

$$$$



 22 25  0  0  0  0  0  0  0  0999 V2000
    7.5014   -1.9472   26.0924 O   0  0  0  0  0  0  0  0  0  0  0  0
    7.3906   -3.2802   25.4136 C   0  0  0  0  0  0  0  0  0  0  0  0
    6.1029   -4.0473   25.4729 N   0  0  0  0  0  0  0  0  0  0  0  0
    5.9920   -5.3803   24.7942 C   0  0  0  0  0  0  0  0  0  0  0  0
    4.7044   -6.1474   24.8535 C   0  0  0  0  0  0  0  0  0  0  0  0
    3.5275   -5.5814   25.5915 C   0  0  0  0  0  0  0  0  0  0  0  0
    3.6384   -4.2483   26.2703 C   0  0  0  0  0  0  0  0  0  0  0  0
    4.9260   -3.4813   26.2110 C   0  0  0  0  0  0  0  0  0  0  0  0
    2.2399   -6.3485   25.6508 C   0  0  0  0  0  0  0  0  0  0  0  0
    1.0622   -6.8514   26.4319 C   0  0  0  0  0  0  0  0  0  0  0  0
    1.1873   -7.1741   24.9723 C   0  0  0  0  0  0  0  0  0  0  0  0
    8.5674   -3.8462   24.6756 C   0  0  0  0  0  0  0  0  0  0  0  0
    9.5249   -2.9288   23.9745 C   0  0  0  0  0  0  0  0  0  0  0  0
    9.1336   -2.2855   22.6772 C   0  0  0  0  0  0  0  0  0  0  0  0
   10.0911   -1.3681   21.9761 N   0  0  0  0  0  0  0  0  0  0  0  0
   11.4399   -1.0939   22.5724 C   0  0  0  0  0  0  0  0  0  0  0  0
   11.8313   -1.7372   23.8698 C   0  0  0  0  0  0  0  0  0  0  0  0
   13.1801   -1.4630   24.4660 C   0  0  0  0  0  0  0  0  0  0  0  0
   13.5713   -2.1062   25.7634 C   0  0  0  0  0  0  0  0  0  0  0  0
   12.6138   -3.0237   26.4644 C   0  0  0  0  0  0  0  0  0  0  0  0
   11.2650   -3.2978   25.8682 C   0  0  0  0  0  0  0  0  0  0  0  0
   10.8738   -2.6546   24.5709 C   0  0  0  0  0  0  0  0  0  0  0  0
  1  2  2  0  0  0
  2 12  1  0  0  0
 12 13  1  0  0  0
 13 14  2  0  0  0
 14 15  1  0  0  0
 15 16  2  0  0  0
 16 17  1  0  0  0
 17 18  2  0  0  0
 18 19  1  0  0  0
 19 20  2  0  0  0
 20 21  1  0  0  0
 21 22  2  0  0  0
  2  3  1  0  0  0
  3  4  1  0  0  0
  4  5  1  0  0  0
  5  6  1  0  0  0
  6  9  1  0  0  0
  9 10  1  0  0  0
 10 11  1  0  0  0
  6  7  1  0  0  0
  7  8  1  0  0  0
 22 13  1  0  0  0
  8  3  1  0  0  0
 22 17  1  0  0  0
 11  9  1  0  0  0
M  END
> <minimizedAffinity>
-6.16872

> <CNNscore>
0.5469396710

> <CNNaffinity>
5.5307273865

> <CNN_VS>
3.0249741077

> <CNNaffinity_variance>
0.2312577069

$$$$



 22 25  0  0  0  0  0  0  0  0999 V2000
   10.9973    1.1979   23.5535 O   0  0  0  0  0  0  0  0  0  0  0  0
   10.3526    0.1230   22.7294 C   0  0  0  0  0  0  0  0  0  0  0  0
    9.0745    0.4048   21.9965 N   0  0  0  0  0  0  0  0  0  0  0  0
    8.4299   -0.6700   21.1724 C   0  0  0  0  0  0  0  0  0  0  0  0
    7.1518   -0.3881   20.4395 C   0  0  0  0  0  0  0  0  0  0  0  0
    6.5184    0.9685   20.5308 C   0  0  0  0  0  0  0  0  0  0  0  0
    7.1631    2.0433   21.3549 C   0  0  0  0  0  0  0  0  0  0  0  0
    8.4411    1.7615   22.0878 C   0  0  0  0  0  0  0  0  0  0  0  0
    5.2403    1.2503   19.7979 C   0  0  0  0  0  0  0  0  0  0  0  0
    3.8461    1.8033   19.7833 C   0  0  0  0  0  0  0  0  0  0  0  0
    4.4210    1.1855   18.5432 C   0  0  0  0  0  0  0  0  0  0  0  0
   10.9860   -1.2336   22.6381 C   0  0  0  0  0  0  0  0  0  0  0  0
   11.6333   -1.8420   23.8469 C   0  0  0  0  0  0  0  0  0  0  0  0
   13.1260   -1.8164   23.9911 C   0  0  0  0  0  0  0  0  0  0  0  0
   13.7733   -2.4248   25.1998 N   0  0  0  0  0  0  0  0  0  0  0  0
   12.9277   -3.0587   26.2643 C   0  0  0  0  0  0  0  0  0  0  0  0
   11.4348   -3.0843   26.1200 C   0  0  0  0  0  0  0  0  0  0  0  0
   10.5892   -3.7183   27.1845 C   0  0  0  0  0  0  0  0  0  0  0  0
    9.0964   -3.7438   27.0402 C   0  0  0  0  0  0  0  0  0  0  0  0
    8.4492   -3.1354   25.8315 C   0  0  0  0  0  0  0  0  0  0  0  0
    9.2948   -2.5015   24.7671 C   0  0  0  0  0  0  0  0  0  0  0  0
   10.7876   -2.4759   24.9113 C   0  0  0  0  0  0  0  0  0  0  0  0
  1  2  2  0  0  0
  2 12  1  0  0  0
 12 13  1  0  0  0
 13 14  2  0  0  0
 14 15  1  0  0  0
 15 16  2  0  0  0
 16 17  1  0  0  0
 17 18  2  0  0  0
 18 19  1  0  0  0
 19 20  2  0  0  0
 20 21  1  0  0  0
 21 22  2  0  0  0
  2  3  1  0  0  0
  3  4  1  0  0  0
  4  5  1  0  0  0
  5  6  1  0  0  0
  6  9  1  0  0  0
  9 10  1  0  0  0
 10 11  1  0  0  0
  6  7  1  0  0  0
  7  8  1  0  0  0
 22 13  1  0  0  0
  8  3  1  0  0  0
 22 17  1  0  0  0
 11  9  1  0  0  0
M  END
> <minimizedAffinity>
-7.45606

> <CNNscore>
0.5462855101

> <CNNaffinity>
5.4559884071

> <CNN_VS>
2.9805274010

> <CNNaffinity_variance>
0.1092967838

$$$$



 22 25  0  0  0  0  0  0  0  0999 V2000
    8.5621    1.8316   21.1379 O   0  0  0  0  0  0  0  0  0  0  0  0
    8.3014    0.4839   21.7427 C   0  0  0  0  0  0  0  0  0  0  0  0
    9.3209   -0.1419   22.6476 N   0  0  0  0  0  0  0  0  0  0  0  0
    9.0602   -1.4896   23.2525 C   0  0  0  0  0  0  0  0  0  0  0  0
   10.0798   -2.1155   24.1573 C   0  0  0  0  0  0  0  0  0  0  0  0
   11.3600   -1.3937   24.4573 C   0  0  0  0  0  0  0  0  0  0  0  0
   11.6208   -0.0460   23.8525 C   0  0  0  0  0  0  0  0  0  0  0  0
   10.6012    0.5799   22.9476 C   0  0  0  0  0  0  0  0  0  0  0  0
   12.3796   -2.0196   25.3622 C   0  0  0  0  0  0  0  0  0  0  0  0
   13.7783   -2.0751   25.9012 C   0  0  0  0  0  0  0  0  0  0  0  0
   12.7468   -3.0481   26.3904 C   0  0  0  0  0  0  0  0  0  0  0  0
    7.0211   -0.2378   21.4427 C   0  0  0  0  0  0  0  0  0  0  0  0
    5.7215    0.2864   21.9777 C   0  0  0  0  0  0  0  0  0  0  0  0
    5.4120    0.1719   23.4409 C   0  0  0  0  0  0  0  0  0  0  0  0
    4.1124    0.6961   23.9759 N   0  0  0  0  0  0  0  0  0  0  0  0
    3.1223    1.3348   23.0476 C   0  0  0  0  0  0  0  0  0  0  0  0
    3.4317    1.4493   21.5843 C   0  0  0  0  0  0  0  0  0  0  0  0
    2.4416    2.0879   20.6561 C   0  0  0  0  0  0  0  0  0  0  0  0
    2.7511    2.2024   19.1928 C   0  0  0  0  0  0  0  0  0  0  0  0
    4.0507    1.6782   18.6579 C   0  0  0  0  0  0  0  0  0  0  0  0
    5.0408    1.0395   19.5861 C   0  0  0  0  0  0  0  0  0  0  0  0
    4.7313    0.9251   21.0494 C   0  0  0  0  0  0  0  0  0  0  0  0
  1  2  2  0  0  0
  2 12  1  0  0  0
 12 13  1  0  0  0
 13 14  2  0  0  0
 14 15  1  0  0  0
 15 16  2  0  0  0
 16 17  1  0  0  0
 17 18  2  0  0  0
 18 19  1  0  0  0
 19 20  2  0  0  0
 20 21  1  0  0  0
 21 22  2  0  0  0
  2  3  1  0  0  0
  3  4  1  0  0  0
  4  5  1  0  0  0
  5  6  1  0  0  0
  6  9  1  0  0  0
  9 10  1  0  0  0
 10 11  1  0  0  0
  6  7  1  0  0  0
  7  8  1  0  0  0
 22 13  1  0  0  0
  8  3  1  0  0  0
 22 17  1  0  0  0
 11  9  1  0  0  0
M  END
> <minimizedAffinity>
-6.79454

> <CNNscore>
0.5180292726

> <CNNaffinity>
5.3044772148

> <CNN_VS>
2.7478744984

> <CNNaffinity_variance>
0.1465352923

$$$$
