


 24 27  0  0  0  0  0  0  0  0999 V2000
    8.6285    1.3019   21.3478 O   0  0  0  0  0  0  0  0  0  0  0  0
    8.0061    0.0793   21.9544 C   0  0  0  0  0  0  0  0  0  0  0  0
    8.7977   -0.7747   22.9000 N   0  0  0  0  0  0  0  0  0  0  0  0
    8.3120   -2.0199   23.5808 C   0  0  0  0  0  0  0  0  0  0  0  0
    9.4281   -2.5481   24.4324 C   0  0  0  0  0  0  0  0  0  0  0  0
   10.6037   -1.6294   24.2779 C   0  0  0  0  0  0  0  0  0  0  0  0
   10.9933   -2.7254   25.2249 C   0  0  0  0  0  0  0  0  0  0  0  0
   12.4096   -2.4840   25.6558 C   0  0  0  0  0  0  0  0  0  0  0  0
   12.8954   -1.2388   24.9750 C   0  0  0  0  0  0  0  0  0  0  0  0
   11.7793   -0.7106   24.1235 C   0  0  0  0  0  0  0  0  0  0  0  0
   10.2141   -0.5333   23.3309 C   0  0  0  0  0  0  0  0  0  0  0  0
    9.3775   -3.7790   25.2882 C   0  0  0  0  0  0  0  0  0  0  0  0
    8.8475   -3.6973   26.6889 F   0  0  0  0  0  0  0  0  0  0  0  0
    6.5922   -0.2894   21.6154 C   0  0  0  0  0  0  0  0  0  0  0  0
    5.9862    0.1716   20.3230 C   0  0  0  0  0  0  0  0  0  0  0  0
    6.6516   -0.1632   19.0211 C   0  0  0  0  0  0  0  0  0  0  0  0
    6.0456    0.2978   17.7287 N   0  0  0  0  0  0  0  0  0  0  0  0
    4.7742    1.0937   17.7383 C   0  0  0  0  0  0  0  0  0  0  0  0
    4.1088    1.4286   19.0403 C   0  0  0  0  0  0  0  0  0  0  0  0
    2.8374    2.2245   19.0499 C   0  0  0  0  0  0  0  0  0  0  0  0
    2.1721    2.5594   20.3518 C   0  0  0  0  0  0  0  0  0  0  0  0
    2.7781    2.0983   21.6442 C   0  0  0  0  0  0  0  0  0  0  0  0
    4.0494    1.3024   21.6346 C   0  0  0  0  0  0  0  0  0  0  0  0
    4.7148    0.9676   20.3327 C   0  0  0  0  0  0  0  0  0  0  0  0
  1  2  2  0  0  0
  2 14  1  0  0  0
 14 15  1  0  0  0
 15 16  2  0  0  0
 16 17  1  0  0  0
 17 18  2  0  0  0
 18 19  1  0  0  0
 19 20  2  0  0  0
 20 21  1  0  0  0
 21 22  2  0  0  0
 22 23  1  0  0  0
 23 24  2  0  0  0
  2  3  1  0  0  0
  3  4  1  0  0  0
  4  5  1  0  0  0
  5 12  1  0  0  0
 12 13  1  0  0  0
  5  6  1  0  0  0
  6  7  1  0  0  0
  7  8  1  0  0  0
  8  9  1  0  0  0
  9 10  1  0  0  0
  6 11  1  0  0  0
 24 15  1  0  0  0
 11  3  1  0  0  0
 24 19  1  0  0  0
 10  6  1  0  0  0
M  END
> <minimizedAffinity>
-7.79124

> <CNNscore>
0.8266097903

> <CNNaffinity>
5.9254527092

> <CNN_VS>
4.8980374336

> <CNNaffinity_variance>
0.0455702022

$$$$



 24 27  0  0  0  0  0  0  0  0999 V2000
    6.5688   -2.1484   22.0642 O   0  0  0  0  0  0  0  0  0  0  0  0
    7.9041   -1.4763   21.9397 C   0  0  0  0  0  0  0  0  0  0  0  0
    9.0284   -1.8673   22.8524 N   0  0  0  0  0  0  0  0  0  0  0  0
   10.4115   -1.2867   22.8464 C   0  0  0  0  0  0  0  0  0  0  0  0
   11.2049   -1.9680   23.9217 C   0  0  0  0  0  0  0  0  0  0  0  0
   10.3122   -2.9697   24.5923 C   0  0  0  0  0  0  0  0  0  0  0  0
   11.6573   -3.0320   25.2531 C   0  0  0  0  0  0  0  0  0  0  0  0
   11.5960   -4.0722   26.3321 C   0  0  0  0  0  0  0  0  0  0  0  0
   10.2129   -4.6527   26.3381 C   0  0  0  0  0  0  0  0  0  0  0  0
    9.4195   -3.9714   25.2629 C   0  0  0  0  0  0  0  0  0  0  0  0
    8.9671   -2.9074   23.9315 C   0  0  0  0  0  0  0  0  0  0  0  0
   12.6392   -1.6955   24.2659 C   0  0  0  0  0  0  0  0  0  0  0  0
   13.0283   -0.3793   24.8708 F   0  0  0  0  0  0  0  0  0  0  0  0
    8.1150   -0.4134   20.9026 C   0  0  0  0  0  0  0  0  0  0  0  0
    6.9809    0.0022   20.0132 C   0  0  0  0  0  0  0  0  0  0  0  0
    6.7720   -0.6821   18.6949 C   0  0  0  0  0  0  0  0  0  0  0  0
    5.6379   -0.2664   17.8054 N   0  0  0  0  0  0  0  0  0  0  0  0
    4.7127    0.8335   18.2344 C   0  0  0  0  0  0  0  0  0  0  0  0
    4.9215    1.5179   19.5528 C   0  0  0  0  0  0  0  0  0  0  0  0
    3.9962    2.6178   19.9817 C   0  0  0  0  0  0  0  0  0  0  0  0
    4.2051    3.3021   21.3000 C   0  0  0  0  0  0  0  0  0  0  0  0
    5.3392    2.8865   22.1894 C   0  0  0  0  0  0  0  0  0  0  0  0
    6.2644    1.7865   21.7605 C   0  0  0  0  0  0  0  0  0  0  0  0
    6.0556    1.1022   20.4422 C   0  0  0  0  0  0  0  0  0  0  0  0
  1  2  2  0  0  0
  2 14  1  0  0  0
 14 15  1  0  0  0
 15 16  2  0  0  0
 16 17  1  0  0  0
 17 18  2  0  0  0
 18 19  1  0  0  0
 19 20  2  0  0  0
 20 21  1  0  0  0
 21 22  2  0  0  0
 22 23  1  0  0  0
 23 24  2  0  0  0
  2  3  1  0  0  0
  3  4  1  0  0  0
  4  5  1  0  0  0
  5 12  1  0  0  0
 12 13  1  0  0  0
  5  6  1  0  0  0
  6  7  1  0  0  0
  7  8  1  0  0  0
  8  9  1  0  0  0
  9 10  1  0  0  0
  6 11  1  0  0  0
 24 15  1  0  0  0
 11  3  1  0  0  0
 24 19  1  0  0  0
 10  6  1  0  0  0
M  END
> <minimizedAffinity>
-7.58880

> <CNNscore>
0.8048954010

> <CNNaffinity>
5.9327721596

> <CNN_VS>
4.7752609253

> <CNNaffinity_variance>
0.0284491237

$$$$



 24 27  0  0  0  0  0  0  0  0999 V2000
    6.3588   -0.9670   22.9610 O   0  0  0  0  0  0  0  0  0  0  0  0
    7.6270   -0.2688   22.5682 C   0  0  0  0  0  0  0  0  0  0  0  0
    8.9236   -0.6449   23.2220 N   0  0  0  0  0  0  0  0  0  0  0  0
   10.2648   -0.0381   22.9341 C   0  0  0  0  0  0  0  0  0  0  0  0
   11.2768   -0.7120   23.8126 C   0  0  0  0  0  0  0  0  0  0  0  0
   10.5610   -1.7354   24.6435 C   0  0  0  0  0  0  0  0  0  0  0  0
   12.0152   -1.7769   25.0084 C   0  0  0  0  0  0  0  0  0  0  0  0
   12.1982   -2.8258   26.0649 C   0  0  0  0  0  0  0  0  0  0  0  0
   10.8570   -3.4326   26.3529 C   0  0  0  0  0  0  0  0  0  0  0  0
    9.8451   -2.7587   25.4744 C   0  0  0  0  0  0  0  0  0  0  0  0
    9.1066   -1.6939   24.2785 C   0  0  0  0  0  0  0  0  0  0  0  0
   12.7465   -0.4148   23.8530 C   0  0  0  0  0  0  0  0  0  0  0  0
   13.3728    0.4198   22.7756 F   0  0  0  0  0  0  0  0  0  0  0  0
    7.5986    0.8055   21.5218 C   0  0  0  0  0  0  0  0  0  0  0  0
    6.6887    0.6741   20.3365 C   0  0  0  0  0  0  0  0  0  0  0  0
    7.0083   -0.3108   19.2512 C   0  0  0  0  0  0  0  0  0  0  0  0
    6.0984   -0.4422   18.0660 N   0  0  0  0  0  0  0  0  0  0  0  0
    4.8690    0.4112   17.9660 C   0  0  0  0  0  0  0  0  0  0  0  0
    4.5494    1.3962   19.0513 C   0  0  0  0  0  0  0  0  0  0  0  0
    3.3199    2.2497   18.9512 C   0  0  0  0  0  0  0  0  0  0  0  0
    3.0004    3.2345   20.0365 C   0  0  0  0  0  0  0  0  0  0  0  0
    3.9102    3.3659   21.2218 C   0  0  0  0  0  0  0  0  0  0  0  0
    5.1397    2.5125   21.3218 C   0  0  0  0  0  0  0  0  0  0  0  0
    5.4592    1.5276   20.2365 C   0  0  0  0  0  0  0  0  0  0  0  0
  1  2  2  0  0  0
  2 14  1  0  0  0
 14 15  1  0  0  0
 15 16  2  0  0  0
 16 17  1  0  0  0
 17 18  2  0  0  0
 18 19  1  0  0  0
 19 20  2  0  0  0
 20 21  1  0  0  0
 21 22  2  0  0  0
 22 23  1  0  0  0
 23 24  2  0  0  0
  2  3  1  0  0  0
  3  4  1  0  0  0
  4  5  1  0  0  0
  5 12  1  0  0  0
 12 13  1  0  0  0
  5  6  1  0  0  0
  6  7  1  0  0  0
  7  8  1  0  0  0
  8  9  1  0  0  0
  9 10  1  0  0  0
  6 11  1  0  0  0
 24 15  1  0  0  0
 11  3  1  0  0  0
 24 19  1  0  0  0
 10  6  1  0  0  0
M  END
> <minimizedAffinity>
-7.95338

> <CNNscore>
0.7068374157

> <CNNaffinity>
5.8646802902

> <CNN_VS>
4.1453752518

> <CNNaffinity_variance>
0.0989967585

$$$$



 24 27  0  0  0  0  0  0  0  0999 V2000
    7.2743   -3.6406   24.6612 O   0  0  0  0  0  0  0  0  0  0  0  0
    7.9900   -2.7731   23.6685 C   0  0  0  0  0  0  0  0  0  0  0  0
    9.4398   -2.4442   23.8679 N   0  0  0  0  0  0  0  0  0  0  0  0
   10.2834   -1.5942   22.9647 C   0  0  0  0  0  0  0  0  0  0  0  0
   11.6656   -1.5321   23.5441 C   0  0  0  0  0  0  0  0  0  0  0  0
   11.6763   -2.3438   24.8055 C   0  0  0  0  0  0  0  0  0  0  0  0
   13.0518   -1.7801   24.6054 C   0  0  0  0  0  0  0  0  0  0  0  0
   13.9126   -2.2434   25.7431 C   0  0  0  0  0  0  0  0  0  0  0  0
   13.0690   -3.0934   26.6463 C   0  0  0  0  0  0  0  0  0  0  0  0
   11.6869   -3.1555   26.0669 C   0  0  0  0  0  0  0  0  0  0  0  0
   10.3007   -2.9075   25.0056 C   0  0  0  0  0  0  0  0  0  0  0  0
   12.8323   -0.7889   22.9640 C   0  0  0  0  0  0  0  0  0  0  0  0
   13.1119   -0.8628   21.4923 F   0  0  0  0  0  0  0  0  0  0  0  0
    7.2559   -2.2347   22.4764 C   0  0  0  0  0  0  0  0  0  0  0  0
    7.2799   -0.7640   22.1821 C   0  0  0  0  0  0  0  0  0  0  0  0
    7.5515   -0.2825   20.7878 C   0  0  0  0  0  0  0  0  0  0  0  0
    7.5755    1.1882   20.4935 N   0  0  0  0  0  0  0  0  0  0  0  0
    7.3279    2.1773   21.5936 C   0  0  0  0  0  0  0  0  0  0  0  0
    7.0563    1.6958   22.9881 C   0  0  0  0  0  0  0  0  0  0  0  0
    6.8086    2.6849   24.0882 C   0  0  0  0  0  0  0  0  0  0  0  0
    6.5370    2.2033   25.4826 C   0  0  0  0  0  0  0  0  0  0  0  0
    6.5130    0.7327   25.7768 C   0  0  0  0  0  0  0  0  0  0  0  0
    6.7606   -0.2564   24.6767 C   0  0  0  0  0  0  0  0  0  0  0  0
    7.0322    0.2251   23.2823 C   0  0  0  0  0  0  0  0  0  0  0  0
  1  2  2  0  0  0
  2 14  1  0  0  0
 14 15  1  0  0  0
 15 16  2  0  0  0
 16 17  1  0  0  0
 17 18  2  0  0  0
 18 19  1  0  0  0
 19 20  2  0  0  0
 20 21  1  0  0  0
 21 22  2  0  0  0
 22 23  1  0  0  0
 23 24  2  0  0  0
  2  3  1  0  0  0
  3  4  1  0  0  0
  4  5  1  0  0  0
  5 12  1  0  0  0
 12 13  1  0  0  0
  5  6  1  0  0  0
  6  7  1  0  0  0
  7  8  1  0  0  0
  8  9  1  0  0  0
  9 10  1  0  0  0
  6 11  1  0  0  0
 24 15  1  0  0  0
 11  3  1  0  0  0
 24 19  1  0  0  0
 10  6  1  0  0  0
M  END
> <minimizedAffinity>
-7.20347

> <CNNscore>
0.5979437232

> <CNNaffinity>
6.0677361488

> <CNN_VS>
3.6281647682

> <CNNaffinity_variance>
0.1296732128

$$$$



 24 27  0  0  0  0  0  0  0  0999 V2000
    7.6760   -0.3336   22.8661 O   0  0  0  0  0  0  0  0  0  0  0  0
    9.0886    0.1290   22.6642 C   0  0  0  0  0  0  0  0  0  0  0  0
    9.4215    1.5882   22.7642 N   0  0  0  0  0  0  0  0  0  0  0  0
   10.7812    2.1965   22.5876 C   0  0  0  0  0  0  0  0  0  0  0  0
   10.6532    3.6795   22.7726 C   0  0  0  0  0  0  0  0  0  0  0  0
    9.2143    3.9878   23.0636 C   0  0  0  0  0  0  0  0  0  0  0  0
    9.9755    5.2802   23.0688 C   0  0  0  0  0  0  0  0  0  0  0  0
    9.0071    6.3873   23.3629 C   0  0  0  0  0  0  0  0  0  0  0  0
    7.6474    5.7790   23.5395 C   0  0  0  0  0  0  0  0  0  0  0  0
    7.7754    4.2961   23.3545 C   0  0  0  0  0  0  0  0  0  0  0  0
    8.4531    2.6953   23.0583 C   0  0  0  0  0  0  0  0  0  0  0  0
   11.7682    4.6788   22.6825 C   0  0  0  0  0  0  0  0  0  0  0  0
   12.7284    4.6293   21.5312 F   0  0  0  0  0  0  0  0  0  0  0  0
   10.1682   -0.8676   22.3622 C   0  0  0  0  0  0  0  0  0  0  0  0
   11.1545   -1.2502   23.4256 C   0  0  0  0  0  0  0  0  0  0  0  0
   12.4747   -0.5436   23.5134 C   0  0  0  0  0  0  0  0  0  0  0  0
   13.4609   -0.9263   24.5768 N   0  0  0  0  0  0  0  0  0  0  0  0
   13.1270   -2.0155   25.5525 C   0  0  0  0  0  0  0  0  0  0  0  0
   11.8068   -2.7222   25.4647 C   0  0  0  0  0  0  0  0  0  0  0  0
   11.4729   -3.8115   26.4404 C   0  0  0  0  0  0  0  0  0  0  0  0
   10.1527   -4.5181   26.3526 C   0  0  0  0  0  0  0  0  0  0  0  0
    9.1664   -4.1355   25.2892 C   0  0  0  0  0  0  0  0  0  0  0  0
    9.5003   -3.0462   24.3135 C   0  0  0  0  0  0  0  0  0  0  0  0
   10.8205   -2.3396   24.4013 C   0  0  0  0  0  0  0  0  0  0  0  0
  1  2  2  0  0  0
  2 14  1  0  0  0
 14 15  1  0  0  0
 15 16  2  0  0  0
 16 17  1  0  0  0
 17 18  2  0  0  0
 18 19  1  0  0  0
 19 20  2  0  0  0
 20 21  1  0  0  0
 21 22  2  0  0  0
 22 23  1  0  0  0
 23 24  2  0  0  0
  2  3  1  0  0  0
  3  4  1  0  0  0
  4  5  1  0  0  0
  5 12  1  0  0  0
 12 13  1  0  0  0
  5  6  1  0  0  0
  6  7  1  0  0  0
  7  8  1  0  0  0
  8  9  1  0  0  0
  9 10  1  0  0  0
  6 11  1  0  0  0
 24 15  1  0  0  0
 11  3  1  0  0  0
 24 19  1  0  0  0
 10  6  1  0  0  0
M  END
> <minimizedAffinity>
-6.92586

> <CNNscore>
0.5506539941

> <CNNaffinity>
6.0015001297

> <CNN_VS>
3.3047499657

> <CNNaffinity_variance>
0.0710565448

$$$$



 24 27  0  0  0  0  0  0  0  0999 V2000
    7.3645   -0.2823   22.9056 O   0  0  0  0  0  0  0  0  0  0  0  0
    8.8420   -0.0528   22.7856 C   0  0  0  0  0  0  0  0  0  0  0  0
    9.3919    1.3414   22.8470 N   0  0  0  0  0  0  0  0  0  0  0  0
   10.8385    1.7241   22.7423 C   0  0  0  0  0  0  0  0  0  0  0  0
   10.9324    3.2169   22.8546 C   0  0  0  0  0  0  0  0  0  0  0  0
    9.5438    3.7569   23.0286 C   0  0  0  0  0  0  0  0  0  0  0  0
   10.4958    4.9159   23.0333 C   0  0  0  0  0  0  0  0  0  0  0  0
    9.6957    6.1723   23.2102 C   0  0  0  0  0  0  0  0  0  0  0  0
    8.2491    5.7896   23.3149 C   0  0  0  0  0  0  0  0  0  0  0  0
    8.1552    4.2969   23.2027 C   0  0  0  0  0  0  0  0  0  0  0  0
    8.5918    2.5977   23.0240 C   0  0  0  0  0  0  0  0  0  0  0  0
   12.1934    4.0274   22.8019 C   0  0  0  0  0  0  0  0  0  0  0  0
   12.8536    4.3027   21.4835 F   0  0  0  0  0  0  0  0  0  0  0  0
    9.7696   -1.2176   22.6041 C   0  0  0  0  0  0  0  0  0  0  0  0
    9.8359   -2.2932   23.6475 C   0  0  0  0  0  0  0  0  0  0  0  0
    8.7137   -3.2795   23.7804 C   0  0  0  0  0  0  0  0  0  0  0  0
    8.7800   -4.3551   24.8238 N   0  0  0  0  0  0  0  0  0  0  0  0
    9.9686   -4.4444   25.7343 C   0  0  0  0  0  0  0  0  0  0  0  0
   11.0910   -3.4580   25.6015 C   0  0  0  0  0  0  0  0  0  0  0  0
   12.2796   -3.5473   26.5121 C   0  0  0  0  0  0  0  0  0  0  0  0
   13.4018   -2.5610   26.3793 C   0  0  0  0  0  0  0  0  0  0  0  0
   13.3355   -1.4854   25.3359 C   0  0  0  0  0  0  0  0  0  0  0  0
   12.1469   -1.3961   24.4253 C   0  0  0  0  0  0  0  0  0  0  0  0
   11.0246   -2.3824   24.5581 C   0  0  0  0  0  0  0  0  0  0  0  0
  1  2  2  0  0  0
  2 14  1  0  0  0
 14 15  1  0  0  0
 15 16  2  0  0  0
 16 17  1  0  0  0
 17 18  2  0  0  0
 18 19  1  0  0  0
 19 20  2  0  0  0
 20 21  1  0  0  0
 21 22  2  0  0  0
 22 23  1  0  0  0
 23 24  2  0  0  0
  2  3  1  0  0  0
  3  4  1  0  0  0
  4  5  1  0  0  0
  5 12  1  0  0  0
 12 13  1  0  0  0
  5  6  1  0  0  0
  6  7  1  0  0  0
  7  8  1  0  0  0
  8  9  1  0  0  0
  9 10  1  0  0  0
  6 11  1  0  0  0
 24 15  1  0  0  0
 11  3  1  0  0  0
 24 19  1  0  0  0
 10  6  1  0  0  0
M  END
> <minimizedAffinity>
-7.39440

> <CNNscore>
0.5297743082

> <CNNaffinity>
5.9139184952

> <CNN_VS>
3.1330420971

> <CNNaffinity_variance>
0.0672298744

$$$$



 24 27  0  0  0  0  0  0  0  0999 V2000
   13.4587    0.5975   22.4928 O   0  0  0  0  0  0  0  0  0  0  0  0
   12.0013    0.6036   22.8480 C   0  0  0  0  0  0  0  0  0  0  0  0
   11.2431    1.8974   22.8819 N   0  0  0  0  0  0  0  0  0  0  0  0
    9.7902    2.0593   23.2178 C   0  0  0  0  0  0  0  0  0  0  0  0
    9.4538    3.5185   23.1295 C   0  0  0  0  0  0  0  0  0  0  0  0
   10.6988    4.2584   22.7391 C   0  0  0  0  0  0  0  0  0  0  0  0
    9.5930    5.2601   22.8920 C   0  0  0  0  0  0  0  0  0  0  0  0
   10.1545    6.6192   22.5962 C   0  0  0  0  0  0  0  0  0  0  0  0
   11.6075    6.4573   22.2604 C   0  0  0  0  0  0  0  0  0  0  0  0
   11.9438    4.9983   22.3487 C   0  0  0  0  0  0  0  0  0  0  0  0
   11.8046    3.2565   22.5861 C   0  0  0  0  0  0  0  0  0  0  0  0
    8.1085    4.1302   23.3864 C   0  0  0  0  0  0  0  0  0  0  0  0
    7.1907    3.5229   24.4055 F   0  0  0  0  0  0  0  0  0  0  0  0
   11.3023   -0.6840   23.1690 C   0  0  0  0  0  0  0  0  0  0  0  0
   11.7978   -1.5468   24.2916 C   0  0  0  0  0  0  0  0  0  0  0  0
   13.2715   -1.7053   24.5214 C   0  0  0  0  0  0  0  0  0  0  0  0
   13.7670   -2.5681   25.6440 N   0  0  0  0  0  0  0  0  0  0  0  0
   12.7888   -3.2724   26.5366 C   0  0  0  0  0  0  0  0  0  0  0  0
   11.3149   -3.1139   26.3068 C   0  0  0  0  0  0  0  0  0  0  0  0
   10.3367   -3.8182   27.1995 C   0  0  0  0  0  0  0  0  0  0  0  0
    8.8629   -3.6598   26.9696 C   0  0  0  0  0  0  0  0  0  0  0  0
    8.3674   -2.7970   25.8471 C   0  0  0  0  0  0  0  0  0  0  0  0
    9.3457   -2.0927   24.9544 C   0  0  0  0  0  0  0  0  0  0  0  0
   10.8194   -2.2512   25.1843 C   0  0  0  0  0  0  0  0  0  0  0  0
  1  2  2  0  0  0
  2 14  1  0  0  0
 14 15  1  0  0  0
 15 16  2  0  0  0
 16 17  1  0  0  0
 17 18  2  0  0  0
 18 19  1  0  0  0
 19 20  2  0  0  0
 20 21  1  0  0  0
 21 22  2  0  0  0
 22 23  1  0  0  0
 23 24  2  0  0  0
  2  3  1  0  0  0
  3  4  1  0  0  0
  4  5  1  0  0  0
  5 12  1  0  0  0
 12 13  1  0  0  0
  5  6  1  0  0  0
  6  7  1  0  0  0
  7  8  1  0  0  0
  8  9  1  0  0  0
  9 10  1  0  0  0
  6 11  1  0  0  0
 24 15  1  0  0  0
 11  3  1  0  0  0
 24 19  1  0  0  0
 10  6  1  0  0  0
M  END
> <minimizedAffinity>
-7.54844

> <CNNscore>
0.5000537634

> <CNNaffinity>
5.7081260681

> <CNN_VS>
2.8543698788

> <CNNaffinity_variance>
0.1279413551

$$$$



 24 27  0  0  0  0  0  0  0  0999 V2000
    6.9636   -2.7357   23.8693 O   0  0  0  0  0  0  0  0  0  0  0  0
    7.8865   -1.9775   22.9618 C   0  0  0  0  0  0  0  0  0  0  0  0
    9.3437   -1.8642   23.2988 N   0  0  0  0  0  0  0  0  0  0  0  0
   10.3818   -1.1423   22.4918 C   0  0  0  0  0  0  0  0  0  0  0  0
   11.6984   -1.2848   23.1962 C   0  0  0  0  0  0  0  0  0  0  0  0
   11.4741   -2.0948   24.4386 C   0  0  0  0  0  0  0  0  0  0  0  0
   12.9293   -1.7367   24.3751 C   0  0  0  0  0  0  0  0  0  0  0  0
   13.6044   -2.3254   25.5783 C   0  0  0  0  0  0  0  0  0  0  0  0
   12.5663   -3.0473   26.3854 C   0  0  0  0  0  0  0  0  0  0  0  0
   11.2498   -2.9048   25.6810 C   0  0  0  0  0  0  0  0  0  0  0  0
   10.0189   -2.4529   24.5020 C   0  0  0  0  0  0  0  0  0  0  0  0
   13.0092   -0.7170   22.7385 C   0  0  0  0  0  0  0  0  0  0  0  0
   13.1869    0.7686   22.6326 F   0  0  0  0  0  0  0  0  0  0  0  0
    7.3521   -1.3327   21.7174 C   0  0  0  0  0  0  0  0  0  0  0  0
    6.1923   -0.3853   21.8023 C   0  0  0  0  0  0  0  0  0  0  0  0
    5.6191   -0.0194   23.1393 C   0  0  0  0  0  0  0  0  0  0  0  0
    4.4593    0.9280   23.2242 N   0  0  0  0  0  0  0  0  0  0  0  0
    3.8727    1.5096   21.9721 C   0  0  0  0  0  0  0  0  0  0  0  0
    4.4459    1.1437   20.6351 C   0  0  0  0  0  0  0  0  0  0  0  0
    3.8593    1.7252   19.3830 C   0  0  0  0  0  0  0  0  0  0  0  0
    4.4325    1.3593   18.0461 C   0  0  0  0  0  0  0  0  0  0  0  0
    5.5923    0.4119   17.9612 C   0  0  0  0  0  0  0  0  0  0  0  0
    6.1789   -0.1696   19.2132 C   0  0  0  0  0  0  0  0  0  0  0  0
    5.6057    0.1963   20.5502 C   0  0  0  0  0  0  0  0  0  0  0  0
  1  2  2  0  0  0
  2 14  1  0  0  0
 14 15  1  0  0  0
 15 16  2  0  0  0
 16 17  1  0  0  0
 17 18  2  0  0  0
 18 19  1  0  0  0
 19 20  2  0  0  0
 20 21  1  0  0  0
 21 22  2  0  0  0
 22 23  1  0  0  0
 23 24  2  0  0  0
  2  3  1  0  0  0
  3  4  1  0  0  0
  4  5  1  0  0  0
  5 12  1  0  0  0
 12 13  1  0  0  0
  5  6  1  0  0  0
  6  7  1  0  0  0
  7  8  1  0  0  0
  8  9  1  0  0  0
  9 10  1  0  0  0
  6 11  1  0  0  0
 24 15  1  0  0  0
 11  3  1  0  0  0
 24 19  1  0  0  0
 10  6  1  0  0  0
M  END
> <minimizedAffinity>
-7.90957

> <CNNscore>
0.4872013032

> <CNNaffinity>
5.8428564072

> <CNN_VS>
2.8466472626

> <CNNaffinity_variance>
0.0849017128

$$$$



 24 27  0  0  0  0  0  0  0  0999 V2000
    8.1995   -1.4428   21.8929 O   0  0  0  0  0  0  0  0  0  0  0  0
    7.9001   -2.2565   23.1171 C   0  0  0  0  0  0  0  0  0  0  0  0
    8.9971   -2.5850   24.0859 N   0  0  0  0  0  0  0  0  0  0  0  0
    8.8499   -3.3848   25.3464 C   0  0  0  0  0  0  0  0  0  0  0  0
   10.1957   -3.4656   26.0039 C   0  0  0  0  0  0  0  0  0  0  0  0
   11.1746   -2.7158   25.1498 C   0  0  0  0  0  0  0  0  0  0  0  0
   11.9154   -3.2599   26.3352 C   0  0  0  0  0  0  0  0  0  0  0  0
   13.3521   -2.8465   26.2137 C   0  0  0  0  0  0  0  0  0  0  0  0
   13.4993   -2.0468   24.9532 C   0  0  0  0  0  0  0  0  0  0  0  0
   12.1536   -1.9660   24.2957 C   0  0  0  0  0  0  0  0  0  0  0  0
   10.4338   -2.1716   23.9645 C   0  0  0  0  0  0  0  0  0  0  0  0
   10.5077   -4.1721   27.2898 C   0  0  0  0  0  0  0  0  0  0  0  0
    9.5934   -4.0215   28.4693 F   0  0  0  0  0  0  0  0  0  0  0  0
    6.5039   -2.7415   23.3723 C   0  0  0  0  0  0  0  0  0  0  0  0
    6.2570   -4.1889   23.6790 C   0  0  0  0  0  0  0  0  0  0  0  0
    6.8234   -5.2522   22.7854 C   0  0  0  0  0  0  0  0  0  0  0  0
    6.5765   -6.6996   23.0922 N   0  0  0  0  0  0  0  0  0  0  0  0
    5.7633   -7.0837   24.2926 C   0  0  0  0  0  0  0  0  0  0  0  0
    5.1968   -6.0204   25.1863 C   0  0  0  0  0  0  0  0  0  0  0  0
    4.3836   -6.4045   26.3867 C   0  0  0  0  0  0  0  0  0  0  0  0
    3.8172   -5.3413   27.2804 C   0  0  0  0  0  0  0  0  0  0  0  0
    4.0641   -3.8939   26.9736 C   0  0  0  0  0  0  0  0  0  0  0  0
    4.8773   -3.5097   25.7732 C   0  0  0  0  0  0  0  0  0  0  0  0
    5.4437   -4.5730   24.8795 C   0  0  0  0  0  0  0  0  0  0  0  0
  1  2  2  0  0  0
  2 14  1  0  0  0
 14 15  1  0  0  0
 15 16  2  0  0  0
 16 17  1  0  0  0
 17 18  2  0  0  0
 18 19  1  0  0  0
 19 20  2  0  0  0
 20 21  1  0  0  0
 21 22  2  0  0  0
 22 23  1  0  0  0
 23 24  2  0  0  0
  2  3  1  0  0  0
  3  4  1  0  0  0
  4  5  1  0  0  0
  5 12  1  0  0  0
 12 13  1  0  0  0
  5  6  1  0  0  0
  6  7  1  0  0  0
  7  8  1  0  0  0
  8  9  1  0  0  0
  9 10  1  0  0  0
  6 11  1  0  0  0
 24 15  1  0  0  0
 11  3  1  0  0  0
 24 19  1  0  0  0
 10  6  1  0  0  0
M  END
> <minimizedAffinity>
-7.01290

> <CNNscore>
0.4771452248

> <CNNaffinity>
5.8842091560

> <CNN_VS>
2.8076221943

> <CNNaffinity_variance>
0.0431942083

$$$$
