


 24 27  0  0  0  0  0  0  0  0999 V2000
   13.8037   -2.6706   26.6502 C   0  0  0  0  0  0  0  0  0  0  0  0
   12.4662   -2.8015   25.9840 C   0  0  0  0  0  0  0  0  0  0  0  0
   11.5583   -3.9406   26.3419 C   0  0  0  0  0  0  0  0  0  0  0  0
   10.2208   -4.0715   25.6757 C   0  0  0  0  0  0  0  0  0  0  0  0
    9.7911   -3.0633   24.6515 C   0  0  0  0  0  0  0  0  0  0  0  0
    8.7815   -4.1432   24.9055 C   0  0  0  0  0  0  0  0  0  0  0  0
    7.5948   -3.8846   24.0253 C   0  0  0  0  0  0  0  0  0  0  0  0
    7.8709   -2.6449   23.2273 N   0  0  0  0  0  0  0  0  0  0  0  0
    6.9512   -2.0221   22.2192 C   0  0  0  0  0  0  0  0  0  0  0  0
    5.6170   -2.6459   21.9352 O   0  0  0  0  0  0  0  0  0  0  0  0
    9.2283   -2.1373   23.6143 C   0  0  0  0  0  0  0  0  0  0  0  0
   10.6990   -1.9242   24.2936 C   0  0  0  0  0  0  0  0  0  0  0  0
   12.0366   -1.7933   24.9598 C   0  0  0  0  0  0  0  0  0  0  0  0
    7.3656   -0.7754   21.4953 C   0  0  0  0  0  0  0  0  0  0  0  0
    6.4883   -0.2058   20.4202 C   0  0  0  0  0  0  0  0  0  0  0  0
    6.8663   -0.3704   18.9780 C   0  0  0  0  0  0  0  0  0  0  0  0
    5.9890    0.1993   17.9029 N   0  0  0  0  0  0  0  0  0  0  0  0
    4.7336    0.9337   18.2701 C   0  0  0  0  0  0  0  0  0  0  0  0
    4.3556    1.0984   19.7123 C   0  0  0  0  0  0  0  0  0  0  0  0
    3.1003    1.8327   20.0795 C   0  0  0  0  0  0  0  0  0  0  0  0
    2.7223    1.9974   21.5218 C   0  0  0  0  0  0  0  0  0  0  0  0
    3.5996    1.4277   22.5968 C   0  0  0  0  0  0  0  0  0  0  0  0
    4.8550    0.6933   22.2296 C   0  0  0  0  0  0  0  0  0  0  0  0
    5.2330    0.5286   20.7874 C   0  0  0  0  0  0  0  0  0  0  0  0
  2  1  1  0  0  0
  2  3  1  0  0  0
  3  4  1  0  0  0
  5  4  1  0  0  0
  5  6  1  0  0  0
  6  7  1  0  0  0
  7  8  1  0  0  0
  8  9  1  0  0  0
  9 10  2  0  0  0
  9 14  1  0  0  0
 14 15  1  0  0  0
 15 16  2  0  0  0
 16 17  1  0  0  0
 17 18  2  0  0  0
 18 19  1  0  0  0
 19 20  2  0  0  0
 20 21  1  0  0  0
 21 22  2  0  0  0
 22 23  1  0  0  0
 23 24  2  0  0  0
  8 11  1  0  0  0
  5 12  1  0  0  0
 12 13  1  0  0  0
 13  2  1  0  0  0
 11  5  1  0  0  0
 24 15  1  0  0  0
 24 19  1  0  0  0
M  END
> <minimizedAffinity>
-8.19823

> <CNNscore>
0.6929122806

> <CNNaffinity>
5.9017286301

> <CNN_VS>
4.0893802643

> <CNNaffinity_variance>
0.0113114193

$$$$



 24 27  0  0  0  0  0  0  0  0999 V2000
   11.1675   -4.6052   27.1569 C   0  0  0  0  0  0  0  0  0  0  0  0
   10.9097   -3.4528   26.2319 C   0  0  0  0  0  0  0  0  0  0  0  0
   11.9540   -2.3924   26.0457 C   0  0  0  0  0  0  0  0  0  0  0  0
   11.6962   -1.2400   25.1207 C   0  0  0  0  0  0  0  0  0  0  0  0
   10.3940   -1.1481   24.3820 C   0  0  0  0  0  0  0  0  0  0  0  0
   11.3385   -0.0184   24.0964 C   0  0  0  0  0  0  0  0  0  0  0  0
   10.6746    0.9048   23.1180 C   0  0  0  0  0  0  0  0  0  0  0  0
    9.3198    0.3456   22.7990 N   0  0  0  0  0  0  0  0  0  0  0  0
    8.3149    0.9491   21.8631 C   0  0  0  0  0  0  0  0  0  0  0  0
    8.6304    2.2293   21.1479 O   0  0  0  0  0  0  0  0  0  0  0  0
    9.1464   -0.9232   23.5801 C   0  0  0  0  0  0  0  0  0  0  0  0
    9.3497   -2.2086   24.5681 C   0  0  0  0  0  0  0  0  0  0  0  0
    9.6075   -3.3610   25.4931 C   0  0  0  0  0  0  0  0  0  0  0  0
    6.9945    0.2725   21.6425 C   0  0  0  0  0  0  0  0  0  0  0  0
    6.2555    0.4726   20.3526 C   0  0  0  0  0  0  0  0  0  0  0  0
    6.7377   -0.1977   19.1003 C   0  0  0  0  0  0  0  0  0  0  0  0
    5.9987    0.0025   17.8103 N   0  0  0  0  0  0  0  0  0  0  0  0
    4.7775    0.8728   17.7728 C   0  0  0  0  0  0  0  0  0  0  0  0
    4.2954    1.5430   19.0251 C   0  0  0  0  0  0  0  0  0  0  0  0
    3.0743    2.4133   18.9876 C   0  0  0  0  0  0  0  0  0  0  0  0
    2.5922    3.0836   20.2400 C   0  0  0  0  0  0  0  0  0  0  0  0
    3.3312    2.8834   21.5299 C   0  0  0  0  0  0  0  0  0  0  0  0
    4.5523    2.0131   21.5674 C   0  0  0  0  0  0  0  0  0  0  0  0
    5.0344    1.3429   20.3151 C   0  0  0  0  0  0  0  0  0  0  0  0
  2  1  1  0  0  0
  2  3  1  0  0  0
  3  4  1  0  0  0
  5  4  1  0  0  0
  5  6  1  0  0  0
  6  7  1  0  0  0
  7  8  1  0  0  0
  8  9  1  0  0  0
  9 10  2  0  0  0
  9 14  1  0  0  0
 14 15  1  0  0  0
 15 16  2  0  0  0
 16 17  1  0  0  0
 17 18  2  0  0  0
 18 19  1  0  0  0
 19 20  2  0  0  0
 20 21  1  0  0  0
 21 22  2  0  0  0
 22 23  1  0  0  0
 23 24  2  0  0  0
  8 11  1  0  0  0
  5 12  1  0  0  0
 12 13  1  0  0  0
 13  2  1  0  0  0
 11  5  1  0  0  0
 24 15  1  0  0  0
 24 19  1  0  0  0
M  END
> <minimizedAffinity>
-8.43838

> <CNNscore>
0.6177055836

> <CNNaffinity>
5.7415418625

> <CNN_VS>
3.5465824604

> <CNNaffinity_variance>
0.0692897588

$$$$



 24 27  0  0  0  0  0  0  0  0999 V2000
   13.8622   -2.7269   26.6418 C   0  0  0  0  0  0  0  0  0  0  0  0
   12.7416   -2.4770   25.6766 C   0  0  0  0  0  0  0  0  0  0  0  0
   13.0202   -1.8181   24.3582 C   0  0  0  0  0  0  0  0  0  0  0  0
   11.8996   -1.5682   23.3929 C   0  0  0  0  0  0  0  0  0  0  0  0
   10.5003   -1.9772   23.7461 C   0  0  0  0  0  0  0  0  0  0  0  0
   10.6253   -1.3316   22.3980 C   0  0  0  0  0  0  0  0  0  0  0  0
    9.2601   -1.2844   21.7782 C   0  0  0  0  0  0  0  0  0  0  0  0
    8.2914   -1.9009   22.7433 N   0  0  0  0  0  0  0  0  0  0  0  0
    6.8153   -2.0611   22.5297 C   0  0  0  0  0  0  0  0  0  0  0  0
    6.1856   -1.5821   21.2554 O   0  0  0  0  0  0  0  0  0  0  0  0
    9.0579   -2.3291   23.9595 C   0  0  0  0  0  0  0  0  0  0  0  0
   10.2217   -2.6360   25.0645 C   0  0  0  0  0  0  0  0  0  0  0  0
   11.3423   -2.8859   26.0298 C   0  0  0  0  0  0  0  0  0  0  0  0
    5.9690   -2.7004   23.5904 C   0  0  0  0  0  0  0  0  0  0  0  0
    5.9691   -4.1916   23.7523 C   0  0  0  0  0  0  0  0  0  0  0  0
    6.6535   -5.0563   22.7356 C   0  0  0  0  0  0  0  0  0  0  0  0
    6.6535   -6.5476   22.8974 N   0  0  0  0  0  0  0  0  0  0  0  0
    5.9691   -7.1741   24.0761 C   0  0  0  0  0  0  0  0  0  0  0  0
    5.2847   -6.3093   25.0928 C   0  0  0  0  0  0  0  0  0  0  0  0
    4.6003   -6.9358   26.2714 C   0  0  0  0  0  0  0  0  0  0  0  0
    3.9159   -6.0709   27.2882 C   0  0  0  0  0  0  0  0  0  0  0  0
    3.9159   -4.5797   27.1263 C   0  0  0  0  0  0  0  0  0  0  0  0
    4.6003   -3.9533   25.9477 C   0  0  0  0  0  0  0  0  0  0  0  0
    5.2847   -4.8180   24.9309 C   0  0  0  0  0  0  0  0  0  0  0  0
  2  1  1  0  0  0
  2  3  1  0  0  0
  3  4  1  0  0  0
  5  4  1  0  0  0
  5  6  1  0  0  0
  6  7  1  0  0  0
  7  8  1  0  0  0
  8  9  1  0  0  0
  9 10  2  0  0  0
  9 14  1  0  0  0
 14 15  1  0  0  0
 15 16  2  0  0  0
 16 17  1  0  0  0
 17 18  2  0  0  0
 18 19  1  0  0  0
 19 20  2  0  0  0
 20 21  1  0  0  0
 21 22  2  0  0  0
 22 23  1  0  0  0
 23 24  2  0  0  0
  8 11  1  0  0  0
  5 12  1  0  0  0
 12 13  1  0  0  0
 13  2  1  0  0  0
 11  5  1  0  0  0
 24 15  1  0  0  0
 24 19  1  0  0  0
M  END
> <minimizedAffinity>
-6.96379

> <CNNscore>
0.5507827997

> <CNNaffinity>
5.9577684402

> <CNN_VS>
3.2814364433

> <CNNaffinity_variance>
0.1586108506

$$$$



 24 27  0  0  0  0  0  0  0  0999 V2000
    8.0403    5.4392   23.2587 C   0  0  0  0  0  0  0  0  0  0  0  0
    7.8356    4.0377   23.7525 C   0  0  0  0  0  0  0  0  0  0  0  0
    6.9538    3.7817   24.9385 C   0  0  0  0  0  0  0  0  0  0  0  0
    6.7490    2.3802   25.4324 C   0  0  0  0  0  0  0  0  0  0  0  0
    7.4262    1.2347   24.7402 C   0  0  0  0  0  0  0  0  0  0  0  0
    6.5777    0.8264   25.9078 C   0  0  0  0  0  0  0  0  0  0  0  0
    6.6611   -0.6652   26.0424 C   0  0  0  0  0  0  0  0  0  0  0  0
    7.5612   -1.1788   24.9580 N   0  0  0  0  0  0  0  0  0  0  0  0
    7.9247   -2.6145   24.7201 C   0  0  0  0  0  0  0  0  0  0  0  0
    7.3716   -3.6860   25.6123 O   0  0  0  0  0  0  0  0  0  0  0  0
    8.0341   -0.0046   24.1532 C   0  0  0  0  0  0  0  0  0  0  0  0
    8.3081    1.4907   23.5542 C   0  0  0  0  0  0  0  0  0  0  0  0
    8.5128    2.8922   23.0603 C   0  0  0  0  0  0  0  0  0  0  0  0
    8.8413   -2.9788   23.5899 C   0  0  0  0  0  0  0  0  0  0  0  0
   10.1755   -2.3059   23.4598 C   0  0  0  0  0  0  0  0  0  0  0  0
   10.4576   -1.4214   22.2817 C   0  0  0  0  0  0  0  0  0  0  0  0
   11.7920   -0.7484   22.1515 N   0  0  0  0  0  0  0  0  0  0  0  0
   12.8441   -0.9601   23.1995 C   0  0  0  0  0  0  0  0  0  0  0  0
   12.5620   -1.8446   24.3776 C   0  0  0  0  0  0  0  0  0  0  0  0
   13.6141   -2.0563   25.4256 C   0  0  0  0  0  0  0  0  0  0  0  0
   13.3319   -2.9410   26.6037 C   0  0  0  0  0  0  0  0  0  0  0  0
   11.9977   -3.6139   26.7338 C   0  0  0  0  0  0  0  0  0  0  0  0
   10.9455   -3.4022   25.6858 C   0  0  0  0  0  0  0  0  0  0  0  0
   11.2276   -2.5176   24.5078 C   0  0  0  0  0  0  0  0  0  0  0  0
  2  1  1  0  0  0
  2  3  1  0  0  0
  3  4  1  0  0  0
  5  4  1  0  0  0
  5  6  1  0  0  0
  6  7  1  0  0  0
  7  8  1  0  0  0
  8  9  1  0  0  0
  9 10  2  0  0  0
  9 14  1  0  0  0
 14 15  1  0  0  0
 15 16  2  0  0  0
 16 17  1  0  0  0
 17 18  2  0  0  0
 18 19  1  0  0  0
 19 20  2  0  0  0
 20 21  1  0  0  0
 21 22  2  0  0  0
 22 23  1  0  0  0
 23 24  2  0  0  0
  8 11  1  0  0  0
  5 12  1  0  0  0
 12 13  1  0  0  0
 13  2  1  0  0  0
 11  5  1  0  0  0
 24 15  1  0  0  0
 24 19  1  0  0  0
M  END
> <minimizedAffinity>
-7.18223

> <CNNscore>
0.5110691786

> <CNNaffinity>
5.7730498314

> <CNN_VS>
2.9504277706

> <CNNaffinity_variance>
0.0375809707

$$$$



 24 27  0  0  0  0  0  0  0  0999 V2000
   12.2879    4.0052   22.9199 C   0  0  0  0  0  0  0  0  0  0  0  0
   11.4563    2.7600   22.8306 C   0  0  0  0  0  0  0  0  0  0  0  0
   12.1017    1.4146   22.9834 C   0  0  0  0  0  0  0  0  0  0  0  0
   11.2701    0.1694   22.8941 C   0  0  0  0  0  0  0  0  0  0  0  0
    9.7932    0.2696   22.6520 C   0  0  0  0  0  0  0  0  0  0  0  0
   10.2957   -1.1376   22.7839 C   0  0  0  0  0  0  0  0  0  0  0  0
    9.1262   -2.0639   22.6285 C   0  0  0  0  0  0  0  0  0  0  0  0
    7.9009   -1.2293   22.4005 N   0  0  0  0  0  0  0  0  0  0  0  0
    6.5079   -1.7461   22.1942 C   0  0  0  0  0  0  0  0  0  0  0  0
    6.2466   -3.2231   22.2053 O   0  0  0  0  0  0  0  0  0  0  0  0
    8.3131    0.2129   22.4150 C   0  0  0  0  0  0  0  0  0  0  0  0
    9.1479    1.6150   22.4992 C   0  0  0  0  0  0  0  0  0  0  0  0
    9.9794    2.8602   22.5885 C   0  0  0  0  0  0  0  0  0  0  0  0
    5.3762   -0.7858   21.9768 C   0  0  0  0  0  0  0  0  0  0  0  0
    5.1463   -0.1928   20.6183 C   0  0  0  0  0  0  0  0  0  0  0  0
    5.9197   -0.7006   19.4377 C   0  0  0  0  0  0  0  0  0  0  0  0
    5.6898   -0.1076   18.0791 N   0  0  0  0  0  0  0  0  0  0  0  0
    4.6865    0.9932   17.9013 C   0  0  0  0  0  0  0  0  0  0  0  0
    3.9131    1.5010   19.0820 C   0  0  0  0  0  0  0  0  0  0  0  0
    2.9098    2.6018   18.9042 C   0  0  0  0  0  0  0  0  0  0  0  0
    2.1364    3.1096   20.0850 C   0  0  0  0  0  0  0  0  0  0  0  0
    2.3663    2.5166   21.4434 C   0  0  0  0  0  0  0  0  0  0  0  0
    3.3696    1.4158   21.6212 C   0  0  0  0  0  0  0  0  0  0  0  0
    4.1430    0.9080   20.4405 C   0  0  0  0  0  0  0  0  0  0  0  0
  2  1  1  0  0  0
  2  3  1  0  0  0
  3  4  1  0  0  0
  5  4  1  0  0  0
  5  6  1  0  0  0
  6  7  1  0  0  0
  7  8  1  0  0  0
  8  9  1  0  0  0
  9 10  2  0  0  0
  9 14  1  0  0  0
 14 15  1  0  0  0
 15 16  2  0  0  0
 16 17  1  0  0  0
 17 18  2  0  0  0
 18 19  1  0  0  0
 19 20  2  0  0  0
 20 21  1  0  0  0
 21 22  2  0  0  0
 22 23  1  0  0  0
 23 24  2  0  0  0
  8 11  1  0  0  0
  5 12  1  0  0  0
 12 13  1  0  0  0
 13  2  1  0  0  0
 11  5  1  0  0  0
 24 15  1  0  0  0
 24 19  1  0  0  0
M  END
> <minimizedAffinity>
-7.85325

> <CNNscore>
0.4855511189

> <CNNaffinity>
5.7031364441

> <CNN_VS>
2.7691643238

> <CNNaffinity_variance>
0.2277278900

$$$$



 24 27  0  0  0  0  0  0  0  0999 V2000
    4.4951    2.2149   23.5017 C   0  0  0  0  0  0  0  0  0  0  0  0
    5.9849    2.1571   23.3369 C   0  0  0  0  0  0  0  0  0  0  0  0
    6.7812    3.4262   23.2645 C   0  0  0  0  0  0  0  0  0  0  0  0
    8.2710    3.3684   23.0997 C   0  0  0  0  0  0  0  0  0  0  0  0
    8.9645    2.0416   23.0074 C   0  0  0  0  0  0  0  0  0  0  0  0
    9.8882    3.2202   22.9198 C   0  0  0  0  0  0  0  0  0  0  0  0
   11.2868    2.7021   22.7596 C   0  0  0  0  0  0  0  0  0  0  0  0
   11.2274    1.2033   22.7481 N   0  0  0  0  0  0  0  0  0  0  0  0
   12.3977    0.2756   22.6080 C   0  0  0  0  0  0  0  0  0  0  0  0
   13.7829    0.8324   22.4622 O   0  0  0  0  0  0  0  0  0  0  0  0
    9.7921    0.7951   22.9012 C   0  0  0  0  0  0  0  0  0  0  0  0
    8.1681    0.7725   23.0798 C   0  0  0  0  0  0  0  0  0  0  0  0
    6.6783    0.8303   23.2446 C   0  0  0  0  0  0  0  0  0  0  0  0
   12.1829   -1.2089   22.6139 C   0  0  0  0  0  0  0  0  0  0  0  0
   12.1359   -1.9548   23.9144 C   0  0  0  0  0  0  0  0  0  0  0  0
   13.3506   -2.0078   24.7929 C   0  0  0  0  0  0  0  0  0  0  0  0
   13.3035   -2.7537   26.0935 N   0  0  0  0  0  0  0  0  0  0  0  0
   12.0418   -3.4466   26.5155 C   0  0  0  0  0  0  0  0  0  0  0  0
   10.8272   -3.3936   25.6370 C   0  0  0  0  0  0  0  0  0  0  0  0
    9.5655   -4.0865   26.0590 C   0  0  0  0  0  0  0  0  0  0  0  0
    8.3509   -4.0334   25.1804 C   0  0  0  0  0  0  0  0  0  0  0  0
    8.3979   -3.2875   23.8799 C   0  0  0  0  0  0  0  0  0  0  0  0
    9.6596   -2.5947   23.4578 C   0  0  0  0  0  0  0  0  0  0  0  0
   10.8742   -2.6477   24.3364 C   0  0  0  0  0  0  0  0  0  0  0  0
  2  1  1  0  0  0
  2  3  1  0  0  0
  3  4  1  0  0  0
  5  4  1  0  0  0
  5  6  1  0  0  0
  6  7  1  0  0  0
  7  8  1  0  0  0
  8  9  1  0  0  0
  9 10  2  0  0  0
  9 14  1  0  0  0
 14 15  1  0  0  0
 15 16  2  0  0  0
 16 17  1  0  0  0
 17 18  2  0  0  0
 18 19  1  0  0  0
 19 20  2  0  0  0
 20 21  1  0  0  0
 21 22  2  0  0  0
 22 23  1  0  0  0
 23 24  2  0  0  0
  8 11  1  0  0  0
  5 12  1  0  0  0
 12 13  1  0  0  0
 13  2  1  0  0  0
 11  5  1  0  0  0
 24 15  1  0  0  0
 24 19  1  0  0  0
M  END
> <minimizedAffinity>
-7.39451

> <CNNscore>
0.4591861367

> <CNNaffinity>
5.9144644737

> <CNN_VS>
2.7158401012

> <CNNaffinity_variance>
0.0953863189

$$$$



 24 27  0  0  0  0  0  0  0  0999 V2000
   13.8636   -2.2574   26.3816 C   0  0  0  0  0  0  0  0  0  0  0  0
   12.5001   -2.6185   25.8714 C   0  0  0  0  0  0  0  0  0  0  0  0
   11.8041   -3.8411   26.3917 C   0  0  0  0  0  0  0  0  0  0  0  0
   10.4405   -4.2021   25.8814 C   0  0  0  0  0  0  0  0  0  0  0  0
    9.7730   -3.3406   24.8508 C   0  0  0  0  0  0  0  0  0  0  0  0
    8.9582   -4.5263   25.2753 C   0  0  0  0  0  0  0  0  0  0  0  0
    7.6665   -4.4979   24.5133 C   0  0  0  0  0  0  0  0  0  0  0  0
    7.6829   -3.2945   23.6179 N   0  0  0  0  0  0  0  0  0  0  0  0
    6.5895   -2.8793   22.6788 C   0  0  0  0  0  0  0  0  0  0  0  0
    5.3371   -3.6986   22.5768 O   0  0  0  0  0  0  0  0  0  0  0  0
    8.9848   -2.5793   23.8265 C   0  0  0  0  0  0  0  0  0  0  0  0
   10.4690   -2.1180   24.3306 C   0  0  0  0  0  0  0  0  0  0  0  0
   11.8326   -1.7569   24.8408 C   0  0  0  0  0  0  0  0  0  0  0  0
    6.7484   -1.6448   21.8416 C   0  0  0  0  0  0  0  0  0  0  0  0
    5.6806   -0.5914   21.8487 C   0  0  0  0  0  0  0  0  0  0  0  0
    5.0420   -0.1794   23.1419 C   0  0  0  0  0  0  0  0  0  0  0  0
    3.9742    0.8741   23.1489 N   0  0  0  0  0  0  0  0  0  0  0  0
    3.5451    1.5156   21.8626 C   0  0  0  0  0  0  0  0  0  0  0  0
    4.1837    1.1036   20.5695 C   0  0  0  0  0  0  0  0  0  0  0  0
    3.7546    1.7451   19.2832 C   0  0  0  0  0  0  0  0  0  0  0  0
    4.3932    1.3331   17.9900 C   0  0  0  0  0  0  0  0  0  0  0  0
    5.4610    0.2796   17.9830 C   0  0  0  0  0  0  0  0  0  0  0  0
    5.8901   -0.3619   19.2692 C   0  0  0  0  0  0  0  0  0  0  0  0
    5.2515    0.0501   20.5624 C   0  0  0  0  0  0  0  0  0  0  0  0
  2  1  1  0  0  0
  2  3  1  0  0  0
  3  4  1  0  0  0
  5  4  1  0  0  0
  5  6  1  0  0  0
  6  7  1  0  0  0
  7  8  1  0  0  0
  8  9  1  0  0  0
  9 10  2  0  0  0
  9 14  1  0  0  0
 14 15  1  0  0  0
 15 16  2  0  0  0
 16 17  1  0  0  0
 17 18  2  0  0  0
 18 19  1  0  0  0
 19 20  2  0  0  0
 20 21  1  0  0  0
 21 22  2  0  0  0
 22 23  1  0  0  0
 23 24  2  0  0  0
  8 11  1  0  0  0
  5 12  1  0  0  0
 12 13  1  0  0  0
 13  2  1  0  0  0
 11  5  1  0  0  0
 24 15  1  0  0  0
 24 19  1  0  0  0
M  END
> <minimizedAffinity>
-7.92708

> <CNNscore>
0.4551056325

> <CNNaffinity>
5.6139774323

> <CNN_VS>
2.5549528599

> <CNNaffinity_variance>
0.0999766141

$$$$



 24 27  0  0  0  0  0  0  0  0999 V2000
   14.1395   -2.1507   26.0612 C   0  0  0  0  0  0  0  0  0  0  0  0
   12.6721   -2.0297   25.7747 C   0  0  0  0  0  0  0  0  0  0  0  0
   11.6876   -2.8660   26.5371 C   0  0  0  0  0  0  0  0  0  0  0  0
   10.2202   -2.7450   26.2506 C   0  0  0  0  0  0  0  0  0  0  0  0
    9.7373   -1.7876   25.2017 C   0  0  0  0  0  0  0  0  0  0  0  0
    8.6405   -2.5543   25.8793 C   0  0  0  0  0  0  0  0  0  0  0  0
    7.3344   -2.1192   25.2837 C   0  0  0  0  0  0  0  0  0  0  0  0
    7.6240   -1.0835   24.2380 N   0  0  0  0  0  0  0  0  0  0  0  0
    6.6070   -0.3769   23.3915 C   0  0  0  0  0  0  0  0  0  0  0  0
    5.1487   -0.6875   23.5551 O   0  0  0  0  0  0  0  0  0  0  0  0
    9.1090   -0.8786   24.1873 C   0  0  0  0  0  0  0  0  0  0  0  0
   10.7218   -0.9512   24.4393 C   0  0  0  0  0  0  0  0  0  0  0  0
   12.1892   -1.0723   24.7258 C   0  0  0  0  0  0  0  0  0  0  0  0
    7.0484    0.6405   22.3814 C   0  0  0  0  0  0  0  0  0  0  0  0
    6.5455    0.5635   20.9704 C   0  0  0  0  0  0  0  0  0  0  0  0
    7.2649   -0.2834   19.9629 C   0  0  0  0  0  0  0  0  0  0  0  0
    6.7619   -0.3603   18.5518 N   0  0  0  0  0  0  0  0  0  0  0  0
    5.5394    0.4096   18.1483 C   0  0  0  0  0  0  0  0  0  0  0  0
    4.8199    1.2564   19.1559 C   0  0  0  0  0  0  0  0  0  0  0  0
    3.5974    2.0264   18.7524 C   0  0  0  0  0  0  0  0  0  0  0  0
    2.8780    2.8732   19.7601 C   0  0  0  0  0  0  0  0  0  0  0  0
    3.3810    2.9502   21.1711 C   0  0  0  0  0  0  0  0  0  0  0  0
    4.6035    2.1803   21.5746 C   0  0  0  0  0  0  0  0  0  0  0  0
    5.3230    1.3334   20.5670 C   0  0  0  0  0  0  0  0  0  0  0  0
  2  1  1  0  0  0
  2  3  1  0  0  0
  3  4  1  0  0  0
  5  4  1  0  0  0
  5  6  1  0  0  0
  6  7  1  0  0  0
  7  8  1  0  0  0
  8  9  1  0  0  0
  9 10  2  0  0  0
  9 14  1  0  0  0
 14 15  1  0  0  0
 15 16  2  0  0  0
 16 17  1  0  0  0
 17 18  2  0  0  0
 18 19  1  0  0  0
 19 20  2  0  0  0
 20 21  1  0  0  0
 21 22  2  0  0  0
 22 23  1  0  0  0
 23 24  2  0  0  0
  8 11  1  0  0  0
  5 12  1  0  0  0
 12 13  1  0  0  0
 13  2  1  0  0  0
 11  5  1  0  0  0
 24 15  1  0  0  0
 24 19  1  0  0  0
M  END
> <minimizedAffinity>
-7.82919

> <CNNscore>
0.4493021369

> <CNNaffinity>
5.7250895500

> <CNN_VS>
2.5722949505

> <CNNaffinity_variance>
0.1228368431

$$$$



 24 27  0  0  0  0  0  0  0  0999 V2000
   11.1765   -4.6813   27.0188 C   0  0  0  0  0  0  0  0  0  0  0  0
   10.8717   -3.5306   26.1061 C   0  0  0  0  0  0  0  0  0  0  0  0
   11.8422   -2.3937   25.9826 C   0  0  0  0  0  0  0  0  0  0  0  0
   11.5374   -1.2430   25.0699 C   0  0  0  0  0  0  0  0  0  0  0  0
   10.2619   -1.2293   24.2807 C   0  0  0  0  0  0  0  0  0  0  0  0
   11.1318   -0.0283   24.0552 C   0  0  0  0  0  0  0  0  0  0  0  0
   10.4411    0.8656   23.0683 C   0  0  0  0  0  0  0  0  0  0  0  0
    9.1443    0.2171   22.6839 N   0  0  0  0  0  0  0  0  0  0  0  0
    8.1354    0.7668   21.7196 C   0  0  0  0  0  0  0  0  0  0  0  0
    8.3844    2.0817   21.0421 O   0  0  0  0  0  0  0  0  0  0  0  0
    9.0336   -1.0776   23.4332 C   0  0  0  0  0  0  0  0  0  0  0  0
    9.2913   -2.3663   24.4041 C   0  0  0  0  0  0  0  0  0  0  0  0
    9.5962   -3.5169   25.3168 C   0  0  0  0  0  0  0  0  0  0  0  0
    6.8776    0.0015   21.4327 C   0  0  0  0  0  0  0  0  0  0  0  0
    5.5720    0.4610   22.0106 C   0  0  0  0  0  0  0  0  0  0  0  0
    5.3041    0.3024   23.4779 C   0  0  0  0  0  0  0  0  0  0  0  0
    3.9983    0.7619   24.0559 N   0  0  0  0  0  0  0  0  0  0  0  0
    2.9605    1.3799   23.1665 C   0  0  0  0  0  0  0  0  0  0  0  0
    3.2284    1.5384   21.6992 C   0  0  0  0  0  0  0  0  0  0  0  0
    2.1906    2.1564   20.8098 C   0  0  0  0  0  0  0  0  0  0  0  0
    2.4585    2.3150   19.3424 C   0  0  0  0  0  0  0  0  0  0  0  0
    3.7643    1.8555   18.7645 C   0  0  0  0  0  0  0  0  0  0  0  0
    4.8021    1.2375   19.6539 C   0  0  0  0  0  0  0  0  0  0  0  0
    4.5342    1.0790   21.1212 C   0  0  0  0  0  0  0  0  0  0  0  0
  2  1  1  0  0  0
  2  3  1  0  0  0
  3  4  1  0  0  0
  5  4  1  0  0  0
  5  6  1  0  0  0
  6  7  1  0  0  0
  7  8  1  0  0  0
  8  9  1  0  0  0
  9 10  2  0  0  0
  9 14  1  0  0  0
 14 15  1  0  0  0
 15 16  2  0  0  0
 16 17  1  0  0  0
 17 18  2  0  0  0
 18 19  1  0  0  0
 19 20  2  0  0  0
 20 21  1  0  0  0
 21 22  2  0  0  0
 22 23  1  0  0  0
 23 24  2  0  0  0
  8 11  1  0  0  0
  5 12  1  0  0  0
 12 13  1  0  0  0
 13  2  1  0  0  0
 11  5  1  0  0  0
 24 15  1  0  0  0
 24 19  1  0  0  0
M  END
> <minimizedAffinity>
-7.37537

> <CNNscore>
0.4143032730

> <CNNaffinity>
5.5181899071

> <CNN_VS>
2.2862040997

> <CNNaffinity_variance>
0.1768967509

$$$$
