


 24 27  0  0  0  0  0  0  0  0999 V2000
  -10.2248   -5.9995  -27.7220 C   0  0  0  0  0  0  0  0  0  0  0  0
   -9.3981   -5.8842  -26.4757 C   0  0  0  0  0  0  0  0  0  0  0  0
   -8.9105   -7.1215  -25.7820 C   0  0  0  0  0  0  0  0  0  0  0  0
   -8.0838   -7.0063  -24.5357 C   0  0  0  0  0  0  0  0  0  0  0  0
   -7.7448   -5.6537  -23.9830 C   0  0  0  0  0  0  0  0  0  0  0  0
   -7.1895   -6.7956  -23.1846 C   0  0  0  0  0  0  0  0  0  0  0  0
   -6.4298   -6.2240  -22.0243 C   0  0  0  0  0  0  0  0  0  0  0  0
   -6.5157   -4.7286  -22.1057 N   0  0  0  0  0  0  0  0  0  0  0  0
   -5.8974   -3.7564  -21.1452 C   0  0  0  0  0  0  0  0  0  0  0  0
   -5.1073   -4.2593  -19.9736 O   0  0  0  0  0  0  0  0  0  0  0  0
   -7.3284   -4.3762  -23.3162 C   0  0  0  0  0  0  0  0  0  0  0  0
   -8.2325   -4.4163  -24.6766 C   0  0  0  0  0  0  0  0  0  0  0  0
   -9.0592   -4.5316  -25.9230 C   0  0  0  0  0  0  0  0  0  0  0  0
   -6.0692   -2.2813  -21.3564 C   0  0  0  0  0  0  0  0  0  0  0  0
   -5.6685   -1.3178  -20.2789 C   0  0  0  0  0  0  0  0  0  0  0  0
   -6.2771   -1.4255  -18.9122 C   0  0  0  0  0  0  0  0  0  0  0  0
   -5.8765   -0.4619  -17.8346 N   0  0  0  0  0  0  0  0  0  0  0  0
   -4.8672    0.6094  -18.1239 C   0  0  0  0  0  0  0  0  0  0  0  0
   -4.2586    0.7171  -19.4906 C   0  0  0  0  0  0  0  0  0  0  0  0
   -3.2493    1.7884  -19.7799 C   0  0  0  0  0  0  0  0  0  0  0  0
   -2.6407    1.8962  -21.1467 C   0  0  0  0  0  0  0  0  0  0  0  0
   -3.0414    0.9326  -22.2242 C   0  0  0  0  0  0  0  0  0  0  0  0
   -4.0507   -0.1387  -21.9349 C   0  0  0  0  0  0  0  0  0  0  0  0
   -4.6593   -0.2465  -20.5682 C   0  0  0  0  0  0  0  0  0  0  0  0
  2  1  1  0  0  0
  2  3  1  0  0  0
  3  4  1  0  0  0
  5  4  1  0  0  0
  5  6  1  0  0  0
  6  7  1  0  0  0
  7  8  1  0  0  0
  8  9  1  0  0  0
  9 10  2  0  0  0
  9 14  1  0  0  0
 14 15  1  0  0  0
 15 16  2  0  0  0
 16 17  1  0  0  0
 17 18  2  0  0  0
 18 19  1  0  0  0
 19 20  2  0  0  0
 20 21  1  0  0  0
 21 22  2  0  0  0
 22 23  1  0  0  0
 23 24  2  0  0  0
  8 11  1  0  0  0
  5 12  1  0  0  0
 12 13  1  0  0  0
 13  2  1  0  0  0
 11  5  1  0  0  0
 24 15  1  0  0  0
 24 19  1  0  0  0
M  END
> <minimizedAffinity>
-7.77709

> <CNNscore>
0.9095155597

> <CNNaffinity>
5.9349932671

> <CNN_VS>
5.3979687691

> <CNNaffinity_variance>
0.2020771801

$$$$



 24 27  0  0  0  0  0  0  0  0999 V2000
   -8.1241   -6.8151  -28.4878 C   0  0  0  0  0  0  0  0  0  0  0  0
   -8.4335   -5.9114  -27.3313 C   0  0  0  0  0  0  0  0  0  0  0  0
   -9.8550   -5.5404  -27.0288 C   0  0  0  0  0  0  0  0  0  0  0  0
  -10.1645   -4.6367  -25.8722 C   0  0  0  0  0  0  0  0  0  0  0  0
   -9.0524   -4.1040  -25.0182 C   0  0  0  0  0  0  0  0  0  0  0  0
  -10.4177   -3.6483  -24.5960 C   0  0  0  0  0  0  0  0  0  0  0  0
  -10.2599   -2.7600  -23.3977 C   0  0  0  0  0  0  0  0  0  0  0  0
   -8.7971   -2.6666  -23.0793 N   0  0  0  0  0  0  0  0  0  0  0  0
   -8.1875   -1.8806  -21.9565 C   0  0  0  0  0  0  0  0  0  0  0  0
   -9.0652   -1.0930  -21.0294 O   0  0  0  0  0  0  0  0  0  0  0  0
   -8.0508   -3.4972  -24.0808 C   0  0  0  0  0  0  0  0  0  0  0  0
   -7.6308   -4.4750  -25.3208 C   0  0  0  0  0  0  0  0  0  0  0  0
   -7.3214   -5.3787  -26.4773 C   0  0  0  0  0  0  0  0  0  0  0  0
   -6.7004   -1.8822  -21.7607 C   0  0  0  0  0  0  0  0  0  0  0  0
   -6.0953   -1.1425  -20.6046 C   0  0  0  0  0  0  0  0  0  0  0  0
   -6.6703   -1.3022  -19.2284 C   0  0  0  0  0  0  0  0  0  0  0  0
   -6.0652   -0.5624  -18.0722 N   0  0  0  0  0  0  0  0  0  0  0  0
   -4.8852    0.3371  -18.2923 C   0  0  0  0  0  0  0  0  0  0  0  0
   -4.3102    0.4968  -19.6685 C   0  0  0  0  0  0  0  0  0  0  0  0
   -3.1302    1.3963  -19.8886 C   0  0  0  0  0  0  0  0  0  0  0  0
   -2.5552    1.5560  -21.2648 C   0  0  0  0  0  0  0  0  0  0  0  0
   -3.1603    0.8162  -22.4209 C   0  0  0  0  0  0  0  0  0  0  0  0
   -4.3403   -0.0833  -22.2008 C   0  0  0  0  0  0  0  0  0  0  0  0
   -4.9153   -0.2430  -20.8247 C   0  0  0  0  0  0  0  0  0  0  0  0
  2  1  1  0  0  0
  2  3  1  0  0  0
  3  4  1  0  0  0
  5  4  1  0  0  0
  5  6  1  0  0  0
  6  7  1  0  0  0
  7  8  1  0  0  0
  8  9  1  0  0  0
  9 10  2  0  0  0
  9 14  1  0  0  0
 14 15  1  0  0  0
 15 16  2  0  0  0
 16 17  1  0  0  0
 17 18  2  0  0  0
 18 19  1  0  0  0
 19 20  2  0  0  0
 20 21  1  0  0  0
 21 22  2  0  0  0
 22 23  1  0  0  0
 23 24  2  0  0  0
  8 11  1  0  0  0
  5 12  1  0  0  0
 12 13  1  0  0  0
 13  2  1  0  0  0
 11  5  1  0  0  0
 24 15  1  0  0  0
 24 19  1  0  0  0
M  END
> <minimizedAffinity>
-7.43160

> <CNNscore>
0.6787829995

> <CNNaffinity>
5.5851960182

> <CNN_VS>
3.7911360264

> <CNNaffinity_variance>
0.1711614877

$$$$



 24 27  0  0  0  0  0  0  0  0999 V2000
   -9.5177   -5.7347  -27.7501 C   0  0  0  0  0  0  0  0  0  0  0  0
   -8.7718   -5.5541  -26.4613 C   0  0  0  0  0  0  0  0  0  0  0  0
   -8.2308   -6.7492  -25.7341 C   0  0  0  0  0  0  0  0  0  0  0  0
   -7.4850   -6.5687  -24.4452 C   0  0  0  0  0  0  0  0  0  0  0  0
   -7.2801   -5.1930  -23.8836 C   0  0  0  0  0  0  0  0  0  0  0  0
   -6.6847   -6.2876  -23.0487 C   0  0  0  0  0  0  0  0  0  0  0  0
   -6.0353   -5.6573  -21.8524 C   0  0  0  0  0  0  0  0  0  0  0  0
   -6.2294   -4.1729  -21.9481 N   0  0  0  0  0  0  0  0  0  0  0  0
   -5.7401   -3.1544  -20.9616 C   0  0  0  0  0  0  0  0  0  0  0  0
   -4.9798   -3.5932  -19.7453 O   0  0  0  0  0  0  0  0  0  0  0  0
   -6.9988   -3.8860  -23.2034 C   0  0  0  0  0  0  0  0  0  0  0  0
   -7.8212   -3.9978  -24.6109 C   0  0  0  0  0  0  0  0  0  0  0  0
   -8.5670   -4.1784  -25.8997 C   0  0  0  0  0  0  0  0  0  0  0  0
   -6.0111   -1.6971  -21.1915 C   0  0  0  0  0  0  0  0  0  0  0  0
   -5.0965   -0.8932  -22.0673 C   0  0  0  0  0  0  0  0  0  0  0  0
   -5.0580   -1.1476  -23.5450 C   0  0  0  0  0  0  0  0  0  0  0  0
   -4.1433   -0.3437  -24.4210 N   0  0  0  0  0  0  0  0  0  0  0  0
   -3.2671    0.7146  -23.8190 C   0  0  0  0  0  0  0  0  0  0  0  0
   -3.3056    0.9690  -22.3413 C   0  0  0  0  0  0  0  0  0  0  0  0
   -2.4295    2.0274  -21.7393 C   0  0  0  0  0  0  0  0  0  0  0  0
   -2.4680    2.2817  -20.2615 C   0  0  0  0  0  0  0  0  0  0  0  0
   -3.3827    1.4778  -19.3857 C   0  0  0  0  0  0  0  0  0  0  0  0
   -4.2589    0.4195  -19.9876 C   0  0  0  0  0  0  0  0  0  0  0  0
   -4.2203    0.1651  -21.4654 C   0  0  0  0  0  0  0  0  0  0  0  0
  2  1  1  0  0  0
  2  3  1  0  0  0
  3  4  1  0  0  0
  5  4  1  0  0  0
  5  6  1  0  0  0
  6  7  1  0  0  0
  7  8  1  0  0  0
  8  9  1  0  0  0
  9 10  2  0  0  0
  9 14  1  0  0  0
 14 15  1  0  0  0
 15 16  2  0  0  0
 16 17  1  0  0  0
 17 18  2  0  0  0
 18 19  1  0  0  0
 19 20  2  0  0  0
 20 21  1  0  0  0
 21 22  2  0  0  0
 22 23  1  0  0  0
 23 24  2  0  0  0
  8 11  1  0  0  0
  5 12  1  0  0  0
 12 13  1  0  0  0
 13  2  1  0  0  0
 11  5  1  0  0  0
 24 15  1  0  0  0
 24 19  1  0  0  0
M  END
> <minimizedAffinity>
-6.75505

> <CNNscore>
0.5828620791

> <CNNaffinity>
5.3464193344

> <CNN_VS>
3.1162250042

> <CNNaffinity_variance>
0.0497444980

$$$$



 24 27  0  0  0  0  0  0  0  0999 V2000
   -9.1835   -7.3902  -26.5119 C   0  0  0  0  0  0  0  0  0  0  0  0
   -9.1952   -6.1208  -25.7127 C   0  0  0  0  0  0  0  0  0  0  0  0
  -10.3442   -5.1651  -25.8399 C   0  0  0  0  0  0  0  0  0  0  0  0
  -10.3559   -3.8957  -25.0407 C   0  0  0  0  0  0  0  0  0  0  0  0
   -9.2185   -3.5822  -24.1144 C   0  0  0  0  0  0  0  0  0  0  0  0
  -10.2933   -2.5361  -24.1367 C   0  0  0  0  0  0  0  0  0  0  0  0
   -9.8965   -1.4435  -23.1887 C   0  0  0  0  0  0  0  0  0  0  0  0
   -8.5764   -1.8143  -22.5804 N   0  0  0  0  0  0  0  0  0  0  0  0
   -7.8099   -1.0054  -21.5764 C   0  0  0  0  0  0  0  0  0  0  0  0
   -8.3575    0.3050  -21.0937 O   0  0  0  0  0  0  0  0  0  0  0  0
   -8.1574   -3.1361  -23.1526 C   0  0  0  0  0  0  0  0  0  0  0  0
   -8.0695   -4.5380  -23.9873 C   0  0  0  0  0  0  0  0  0  0  0  0
   -8.0578   -5.8073  -24.7864 C   0  0  0  0  0  0  0  0  0  0  0  0
   -6.4959   -1.5069  -21.0550 C   0  0  0  0  0  0  0  0  0  0  0  0
   -5.4449   -0.5335  -20.6102 C   0  0  0  0  0  0  0  0  0  0  0  0
   -5.3985   -0.0810  -19.1809 C   0  0  0  0  0  0  0  0  0  0  0  0
   -4.3474    0.8924  -18.7360 N   0  0  0  0  0  0  0  0  0  0  0  0
   -3.3427    1.4132  -19.7205 C   0  0  0  0  0  0  0  0  0  0  0  0
   -3.3890    0.9607  -21.1499 C   0  0  0  0  0  0  0  0  0  0  0  0
   -2.3843    1.4815  -22.1344 C   0  0  0  0  0  0  0  0  0  0  0  0
   -2.4307    1.0289  -23.5638 C   0  0  0  0  0  0  0  0  0  0  0  0
   -3.4818    0.0555  -24.0086 C   0  0  0  0  0  0  0  0  0  0  0  0
   -4.4865   -0.4653  -23.0241 C   0  0  0  0  0  0  0  0  0  0  0  0
   -4.4401   -0.0127  -21.5947 C   0  0  0  0  0  0  0  0  0  0  0  0
  2  1  1  0  0  0
  2  3  1  0  0  0
  3  4  1  0  0  0
  5  4  1  0  0  0
  5  6  1  0  0  0
  6  7  1  0  0  0
  7  8  1  0  0  0
  8  9  1  0  0  0
  9 10  2  0  0  0
  9 14  1  0  0  0
 14 15  1  0  0  0
 15 16  2  0  0  0
 16 17  1  0  0  0
 17 18  2  0  0  0
 18 19  1  0  0  0
 19 20  2  0  0  0
 20 21  1  0  0  0
 21 22  2  0  0  0
 22 23  1  0  0  0
 23 24  2  0  0  0
  8 11  1  0  0  0
  5 12  1  0  0  0
 12 13  1  0  0  0
 13  2  1  0  0  0
 11  5  1  0  0  0
 24 15  1  0  0  0
 24 19  1  0  0  0
M  END
> <minimizedAffinity>
-7.19690

> <CNNscore>
0.5519285798

> <CNNaffinity>
5.3455934525

> <CNN_VS>
2.9503858089

> <CNNaffinity_variance>
0.1585075706

$$$$



 24 27  0  0  0  0  0  0  0  0999 V2000
  -13.4136    3.0955  -23.6230 C   0  0  0  0  0  0  0  0  0  0  0  0
  -12.5933    1.8469  -23.4889 C   0  0  0  0  0  0  0  0  0  0  0  0
  -13.2502    0.5027  -23.5972 C   0  0  0  0  0  0  0  0  0  0  0  0
  -12.4299   -0.7459  -23.4631 C   0  0  0  0  0  0  0  0  0  0  0  0
  -10.9527   -0.6505  -23.2208 C   0  0  0  0  0  0  0  0  0  0  0  0
  -11.4674   -2.0568  -23.3057 C   0  0  0  0  0  0  0  0  0  0  0  0
  -10.3065   -2.9876  -23.1156 C   0  0  0  0  0  0  0  0  0  0  0  0
   -9.0743   -2.1564  -22.9132 N   0  0  0  0  0  0  0  0  0  0  0  0
   -7.6865   -2.6780  -22.6857 C   0  0  0  0  0  0  0  0  0  0  0  0
   -7.4383   -4.1567  -22.6455 O   0  0  0  0  0  0  0  0  0  0  0  0
   -9.4738   -0.7120  -22.9781 C   0  0  0  0  0  0  0  0  0  0  0  0
  -10.2958    0.6937  -23.1125 C   0  0  0  0  0  0  0  0  0  0  0  0
  -11.1161    1.9423  -23.2466 C   0  0  0  0  0  0  0  0  0  0  0  0
   -6.5468   -1.7208  -22.4984 C   0  0  0  0  0  0  0  0  0  0  0  0
   -6.2913   -1.1135  -21.1509 C   0  0  0  0  0  0  0  0  0  0  0  0
   -7.2350   -1.3817  -20.0162 C   0  0  0  0  0  0  0  0  0  0  0  0
   -6.9794   -0.7743  -18.6686 N   0  0  0  0  0  0  0  0  0  0  0  0
   -5.7802    0.1012  -18.4558 C   0  0  0  0  0  0  0  0  0  0  0  0
   -4.8366    0.3694  -19.5905 C   0  0  0  0  0  0  0  0  0  0  0  0
   -3.6373    1.2450  -19.3776 C   0  0  0  0  0  0  0  0  0  0  0  0
   -2.6936    1.5132  -20.5124 C   0  0  0  0  0  0  0  0  0  0  0  0
   -2.9492    0.9058  -21.8599 C   0  0  0  0  0  0  0  0  0  0  0  0
   -4.1484    0.0302  -22.0727 C   0  0  0  0  0  0  0  0  0  0  0  0
   -5.0921   -0.2380  -20.9381 C   0  0  0  0  0  0  0  0  0  0  0  0
  2  1  1  0  0  0
  2  3  1  0  0  0
  3  4  1  0  0  0
  5  4  1  0  0  0
  5  6  1  0  0  0
  6  7  1  0  0  0
  7  8  1  0  0  0
  8  9  1  0  0  0
  9 10  2  0  0  0
  9 14  1  0  0  0
 14 15  1  0  0  0
 15 16  2  0  0  0
 16 17  1  0  0  0
 17 18  2  0  0  0
 18 19  1  0  0  0
 19 20  2  0  0  0
 20 21  1  0  0  0
 21 22  2  0  0  0
 22 23  1  0  0  0
 23 24  2  0  0  0
  8 11  1  0  0  0
  5 12  1  0  0  0
 12 13  1  0  0  0
 13  2  1  0  0  0
 11  5  1  0  0  0
 24 15  1  0  0  0
 24 19  1  0  0  0
M  END
> <minimizedAffinity>
-8.30214

> <CNNscore>
0.5422168374

> <CNNaffinity>
5.6132040024

> <CNN_VS>
3.0435736179

> <CNNaffinity_variance>
0.5779618025

$$$$



 24 27  0  0  0  0  0  0  0  0999 V2000
   -0.2050    2.6110  -23.9859 C   0  0  0  0  0  0  0  0  0  0  0  0
   -1.2501    2.1272  -23.0248 C   0  0  0  0  0  0  0  0  0  0  0  0
   -1.0768    2.3529  -21.5521 C   0  0  0  0  0  0  0  0  0  0  0  0
   -2.1220    1.8692  -20.5911 C   0  0  0  0  0  0  0  0  0  0  0  0
   -3.3405    1.1597  -21.1028 C   0  0  0  0  0  0  0  0  0  0  0  0
   -3.3048    1.3122  -19.6110 C   0  0  0  0  0  0  0  0  0  0  0  0
   -4.5471    0.6852  -19.0510 C   0  0  0  0  0  0  0  0  0  0  0  0
   -5.3507    0.1453  -20.1968 N   0  0  0  0  0  0  0  0  0  0  0  0
   -6.6685   -0.5635  -20.0927 C   0  0  0  0  0  0  0  0  0  0  0  0
   -7.2965   -0.7858  -18.7488 O   0  0  0  0  0  0  0  0  0  0  0  0
   -4.6049    0.4385  -21.4648 C   0  0  0  0  0  0  0  0  0  0  0  0
   -3.5138    0.9339  -22.5755 C   0  0  0  0  0  0  0  0  0  0  0  0
   -2.4686    1.4177  -23.5365 C   0  0  0  0  0  0  0  0  0  0  0  0
   -7.3585   -1.0500  -21.3327 C   0  0  0  0  0  0  0  0  0  0  0  0
   -8.2685   -0.1320  -22.0936 C   0  0  0  0  0  0  0  0  0  0  0  0
   -7.8276    1.2655  -22.4135 C   0  0  0  0  0  0  0  0  0  0  0  0
   -8.7377    2.1835  -23.1745 N   0  0  0  0  0  0  0  0  0  0  0  0
  -10.0888    1.7038  -23.6157 C   0  0  0  0  0  0  0  0  0  0  0  0
  -10.5297    0.3062  -23.2959 C   0  0  0  0  0  0  0  0  0  0  0  0
  -11.8807   -0.1735  -23.7371 C   0  0  0  0  0  0  0  0  0  0  0  0
  -12.3216   -1.5712  -23.4172 C   0  0  0  0  0  0  0  0  0  0  0  0
  -11.4115   -2.4891  -22.6562 C   0  0  0  0  0  0  0  0  0  0  0  0
  -10.0604   -2.0093  -22.2150 C   0  0  0  0  0  0  0  0  0  0  0  0
   -9.6195   -0.6118  -22.5348 C   0  0  0  0  0  0  0  0  0  0  0  0
  2  1  1  0  0  0
  2  3  1  0  0  0
  3  4  1  0  0  0
  5  4  1  0  0  0
  5  6  1  0  0  0
  6  7  1  0  0  0
  7  8  1  0  0  0
  8  9  1  0  0  0
  9 10  2  0  0  0
  9 14  1  0  0  0
 14 15  1  0  0  0
 15 16  2  0  0  0
 16 17  1  0  0  0
 17 18  2  0  0  0
 18 19  1  0  0  0
 19 20  2  0  0  0
 20 21  1  0  0  0
 21 22  2  0  0  0
 22 23  1  0  0  0
 23 24  2  0  0  0
  8 11  1  0  0  0
  5 12  1  0  0  0
 12 13  1  0  0  0
 13  2  1  0  0  0
 11  5  1  0  0  0
 24 15  1  0  0  0
 24 19  1  0  0  0
M  END
> <minimizedAffinity>
-6.92860

> <CNNscore>
0.4743706882

> <CNNaffinity>
5.2676768303

> <CNN_VS>
2.4988315105

> <CNNaffinity_variance>
0.3061921000

$$$$



 24 27  0  0  0  0  0  0  0  0999 V2000
   -9.2622   -7.3342  -26.5109 C   0  0  0  0  0  0  0  0  0  0  0  0
   -9.1720   -6.0977  -25.6666 C   0  0  0  0  0  0  0  0  0  0  0  0
   -8.1122   -5.9860  -24.6110 C   0  0  0  0  0  0  0  0  0  0  0  0
   -8.0220   -4.7494  -23.7667 C   0  0  0  0  0  0  0  0  0  0  0  0
   -8.9916   -3.6246  -23.9780 C   0  0  0  0  0  0  0  0  0  0  0  0
   -7.9906   -3.3710  -22.8900 C   0  0  0  0  0  0  0  0  0  0  0  0
   -8.2669   -2.0142  -22.3130 C   0  0  0  0  0  0  0  0  0  0  0  0
   -9.4386   -1.4293  -23.0444 N   0  0  0  0  0  0  0  0  0  0  0  0
  -10.0543   -0.0852  -22.7913 C   0  0  0  0  0  0  0  0  0  0  0  0
   -9.4953    0.8065  -21.7225 O   0  0  0  0  0  0  0  0  0  0  0  0
   -9.8864   -2.4246  -24.0734 C   0  0  0  0  0  0  0  0  0  0  0  0
  -10.0514   -3.7364  -25.0336 C   0  0  0  0  0  0  0  0  0  0  0  0
  -10.1416   -4.9729  -25.8779 C   0  0  0  0  0  0  0  0  0  0  0  0
  -11.2291    0.3673  -23.6070 C   0  0  0  0  0  0  0  0  0  0  0  0
  -11.8030    1.7375  -23.3995 C   0  0  0  0  0  0  0  0  0  0  0  0
  -13.0728    1.9085  -22.6196 C   0  0  0  0  0  0  0  0  0  0  0  0
  -13.6468    3.2788  -22.4121 N   0  0  0  0  0  0  0  0  0  0  0  0
  -12.9508    4.4780  -22.9846 C   0  0  0  0  0  0  0  0  0  0  0  0
  -11.6810    4.3069  -23.7645 C   0  0  0  0  0  0  0  0  0  0  0  0
  -10.9851    5.5061  -24.3370 C   0  0  0  0  0  0  0  0  0  0  0  0
   -9.7152    5.3350  -25.1169 C   0  0  0  0  0  0  0  0  0  0  0  0
   -9.1413    3.9647  -25.3244 C   0  0  0  0  0  0  0  0  0  0  0  0
   -9.8372    2.7656  -24.7519 C   0  0  0  0  0  0  0  0  0  0  0  0
  -11.1071    2.9366  -23.9720 C   0  0  0  0  0  0  0  0  0  0  0  0
  2  1  1  0  0  0
  2  3  1  0  0  0
  3  4  1  0  0  0
  5  4  1  0  0  0
  5  6  1  0  0  0
  6  7  1  0  0  0
  7  8  1  0  0  0
  8  9  1  0  0  0
  9 10  2  0  0  0
  9 14  1  0  0  0
 14 15  1  0  0  0
 15 16  2  0  0  0
 16 17  1  0  0  0
 17 18  2  0  0  0
 18 19  1  0  0  0
 19 20  2  0  0  0
 20 21  1  0  0  0
 21 22  2  0  0  0
 22 23  1  0  0  0
 23 24  2  0  0  0
  8 11  1  0  0  0
  5 12  1  0  0  0
 12 13  1  0  0  0
 13  2  1  0  0  0
 11  5  1  0  0  0
 24 15  1  0  0  0
 24 19  1  0  0  0
M  END
> <minimizedAffinity>
-7.00597

> <CNNscore>
0.4122641385

> <CNNaffinity>
5.2944836617

> <CNN_VS>
2.1827256680

> <CNNaffinity_variance>
0.2072675228

$$$$



 24 27  0  0  0  0  0  0  0  0999 V2000
   -0.1128    2.5703  -23.1251 C   0  0  0  0  0  0  0  0  0  0  0  0
   -1.2618    2.0190  -22.3341 C   0  0  0  0  0  0  0  0  0  0  0  0
   -1.3834    2.3300  -20.8718 C   0  0  0  0  0  0  0  0  0  0  0  0
   -2.5325    1.7786  -20.0807 C   0  0  0  0  0  0  0  0  0  0  0  0
   -3.5599    0.9163  -20.7521 C   0  0  0  0  0  0  0  0  0  0  0  0
   -3.8122    1.1403  -19.2905 C   0  0  0  0  0  0  0  0  0  0  0  0
   -5.0667    0.4066  -18.9189 C   0  0  0  0  0  0  0  0  0  0  0  0
   -5.5897   -0.2708  -20.1508 N   0  0  0  0  0  0  0  0  0  0  0  0
   -6.8267   -1.1149  -20.2350 C   0  0  0  0  0  0  0  0  0  0  0  0
   -7.6637   -1.3431  -19.0113 O   0  0  0  0  0  0  0  0  0  0  0  0
   -4.6585    0.0443  -21.2837 C   0  0  0  0  0  0  0  0  0  0  0  0
   -3.4384    0.6054  -22.2144 C   0  0  0  0  0  0  0  0  0  0  0  0
   -2.2893    1.1567  -23.0054 C   0  0  0  0  0  0  0  0  0  0  0  0
   -7.2268   -1.7310  -21.5428 C   0  0  0  0  0  0  0  0  0  0  0  0
   -8.5977   -1.4850  -22.0994 C   0  0  0  0  0  0  0  0  0  0  0  0
   -9.6312   -2.5712  -22.0552 C   0  0  0  0  0  0  0  0  0  0  0  0
  -11.0023   -2.3252  -22.6119 N   0  0  0  0  0  0  0  0  0  0  0  0
  -11.3397   -0.9929  -23.2128 C   0  0  0  0  0  0  0  0  0  0  0  0
  -10.3063    0.0933  -23.2571 C   0  0  0  0  0  0  0  0  0  0  0  0
  -10.6437    1.4257  -23.8580 C   0  0  0  0  0  0  0  0  0  0  0  0
   -9.6101    2.5119  -23.9022 C   0  0  0  0  0  0  0  0  0  0  0  0
   -8.2392    2.2658  -23.3456 C   0  0  0  0  0  0  0  0  0  0  0  0
   -7.9017    0.9335  -22.7446 C   0  0  0  0  0  0  0  0  0  0  0  0
   -8.9352   -0.1527  -22.7004 C   0  0  0  0  0  0  0  0  0  0  0  0
  2  1  1  0  0  0
  2  3  1  0  0  0
  3  4  1  0  0  0
  5  4  1  0  0  0
  5  6  1  0  0  0
  6  7  1  0  0  0
  7  8  1  0  0  0
  8  9  1  0  0  0
  9 10  2  0  0  0
  9 14  1  0  0  0
 14 15  1  0  0  0
 15 16  2  0  0  0
 16 17  1  0  0  0
 17 18  2  0  0  0
 18 19  1  0  0  0
 19 20  2  0  0  0
 20 21  1  0  0  0
 21 22  2  0  0  0
 22 23  1  0  0  0
 23 24  2  0  0  0
  8 11  1  0  0  0
  5 12  1  0  0  0
 12 13  1  0  0  0
 13  2  1  0  0  0
 11  5  1  0  0  0
 24 15  1  0  0  0
 24 19  1  0  0  0
M  END
> <minimizedAffinity>
-6.76244

> <CNNscore>
0.3530188501

> <CNNaffinity>
5.0997323990

> <CNN_VS>
1.8003016710

> <CNNaffinity_variance>
0.3518607020

$$$$



 24 27  0  0  0  0  0  0  0  0999 V2000
  -10.2736   -6.0398  -27.2665 C   0  0  0  0  0  0  0  0  0  0  0  0
   -9.3700   -5.7534  -26.1040 C   0  0  0  0  0  0  0  0  0  0  0  0
   -8.4029   -6.7977  -25.6306 C   0  0  0  0  0  0  0  0  0  0  0  0
   -7.4993   -6.5113  -24.4681 C   0  0  0  0  0  0  0  0  0  0  0  0
   -7.5628   -5.1806  -23.7789 C   0  0  0  0  0  0  0  0  0  0  0  0
   -6.5503   -6.1216  -23.1964 C   0  0  0  0  0  0  0  0  0  0  0  0
   -5.8748   -5.4254  -22.0522 C   0  0  0  0  0  0  0  0  0  0  0  0
   -6.4698   -4.0542  -21.9276 N   0  0  0  0  0  0  0  0  0  0  0  0
   -6.0886   -3.0164  -20.9139 C   0  0  0  0  0  0  0  0  0  0  0  0
   -5.0211   -3.3125  -19.9025 O   0  0  0  0  0  0  0  0  0  0  0  0
   -7.5131   -3.9028  -22.9947 C   0  0  0  0  0  0  0  0  0  0  0  0
   -8.5299   -4.1362  -24.2522 C   0  0  0  0  0  0  0  0  0  0  0  0
   -9.4335   -4.4227  -25.4148 C   0  0  0  0  0  0  0  0  0  0  0  0
   -6.7748   -1.6826  -20.9114 C   0  0  0  0  0  0  0  0  0  0  0  0
   -5.9631   -0.4216  -20.9421 C   0  0  0  0  0  0  0  0  0  0  0  0
   -4.6471   -0.3591  -20.2251 C   0  0  0  0  0  0  0  0  0  0  0  0
   -3.8354    0.9020  -20.2558 N   0  0  0  0  0  0  0  0  0  0  0  0
   -4.3397    2.1006  -21.0035 C   0  0  0  0  0  0  0  0  0  0  0  0
   -5.6558    2.0381  -21.7205 C   0  0  0  0  0  0  0  0  0  0  0  0
   -6.1601    3.2366  -22.4683 C   0  0  0  0  0  0  0  0  0  0  0  0
   -7.4762    3.1741  -23.1853 C   0  0  0  0  0  0  0  0  0  0  0  0
   -8.2879    1.9130  -23.1546 C   0  0  0  0  0  0  0  0  0  0  0  0
   -7.7835    0.7145  -22.4069 C   0  0  0  0  0  0  0  0  0  0  0  0
   -6.4675    0.7770  -21.6898 C   0  0  0  0  0  0  0  0  0  0  0  0
  2  1  1  0  0  0
  2  3  1  0  0  0
  3  4  1  0  0  0
  5  4  1  0  0  0
  5  6  1  0  0  0
  6  7  1  0  0  0
  7  8  1  0  0  0
  8  9  1  0  0  0
  9 10  2  0  0  0
  9 14  1  0  0  0
 14 15  1  0  0  0
 15 16  2  0  0  0
 16 17  1  0  0  0
 17 18  2  0  0  0
 18 19  1  0  0  0
 19 20  2  0  0  0
 20 21  1  0  0  0
 21 22  2  0  0  0
 22 23  1  0  0  0
 23 24  2  0  0  0
  8 11  1  0  0  0
  5 12  1  0  0  0
 12 13  1  0  0  0
 13  2  1  0  0  0
 11  5  1  0  0  0
 24 15  1  0  0  0
 24 19  1  0  0  0
M  END
> <minimizedAffinity>
-6.74995

> <CNNscore>
0.3529914618

> <CNNaffinity>
5.3957419395

> <CNN_VS>
1.9046508074

> <CNNaffinity_variance>
0.1356272995

$$$$
