
     RDKit          2D

 34 39  0  0  0  0  0  0  0  0999 V2000
   -8.2572    3.5808    0.0000 C   0  0  0  0  0  0  0  0  0  0  0  0
   -7.7937    2.1543    0.0000 N   0  0  0  0  0  0  0  0  0  0  0  0
   -6.3265    1.8424    0.0000 C   0  0  0  0  0  0  0  0  0  0  0  0
   -5.3228    2.9571    0.0000 O   0  0  0  0  0  0  0  0  0  0  0  0
   -5.8629    0.4158    0.0000 C   0  0  0  0  0  0  0  0  0  0  0  0
   -4.3957    0.1039    0.0000 N   0  0  0  0  0  0  0  0  0  0  0  0
   -3.3920    1.2187    0.0000 C   0  0  0  0  0  0  0  0  0  0  0  0
   -1.9248    0.9068    0.0000 C   0  0  0  0  0  0  0  0  0  0  0  0
   -2.2367    2.3740    0.0000 C   0  0  0  0  0  0  0  0  0  0  0  0
   -3.6070    2.9841    0.0000 O   0  0  0  0  0  0  0  0  0  0  0  0
   -0.9376    3.1240    0.0000 N   0  0  0  0  0  0  0  0  0  0  0  0
   -0.7808    4.6158    0.0000 C   0  0  0  0  0  0  0  0  0  0  0  0
   -1.9944    5.4975    0.0000 C   0  0  0  0  0  0  0  0  0  0  0  0
   -1.8376    6.9893    0.0000 N   0  0  0  0  0  0  0  0  0  0  0  0
   -0.4672    7.5994    0.0000 C   0  0  0  0  0  0  0  0  0  0  0  0
    0.7463    6.7177    0.0000 C   0  0  0  0  0  0  0  0  0  0  0  0
    2.1166    7.3278    0.0000 C   0  0  0  0  0  0  0  0  0  0  0  0
    3.3301    6.4461    0.0000 C   0  0  0  0  0  0  0  0  0  0  0  0
    3.1733    4.9543    0.0000 C   0  0  0  0  0  0  0  0  0  0  0  0
    1.8030    4.3442    0.0000 C   0  0  0  0  0  0  0  0  0  0  0  0
    0.5895    5.2259    0.0000 C   0  0  0  0  0  0  0  0  0  0  0  0
    0.1771    2.1203    0.0000 C   0  0  0  0  0  0  0  0  0  0  0  0
   -0.4330    0.7500    0.0000 C   0  0  0  0  0  0  0  0  0  0  0  0
    0.8660    0.0000    0.0000 C   0  0  0  0  0  0  0  0  0  0  0  0
   -0.4330   -0.7500    0.0000 C   0  0  0  0  0  0  0  0  0  0  0  0
   -1.4613   -0.5198    0.0000 C   0  0  0  0  0  0  0  0  0  0  0  0
   -1.7215   -0.9005    0.0000 C   0  0  0  0  0  0  0  0  0  0  0  0
   -1.5202   -0.7257    0.0000 C   0  0  0  0  0  0  0  0  0  0  0  0
    1.9367   -2.5701    0.0000 Cl  0  0  0  0  0  0  0  0  0  0  0  0
   -2.2663   -1.5543    0.0000 C   0  0  0  0  0  0  0  0  0  0  0  0
   -2.1136   -1.3359    0.0000 C   0  0  0  0  0  0  0  0  0  0  0  0
   -2.4650   -1.6345    0.0000 C   0  0  0  0  0  0  0  0  0  0  0  0
   -3.9322   -1.3226    0.0000 C   0  0  0  0  0  0  0  0  0  0  0  0
   -4.9359   -2.4374    0.0000 O   0  0  0  0  0  0  0  0  0  0  0  0
  1  2  1  0
  2  3  1  0
  3  4  2  0
  3  5  1  0
  5  6  1  0
  6  7  1  0
  8  7  1  6
  8  9  1  0
  9 10  2  0
  9 11  1  0
 11 12  1  0
 12 13  2  0
 13 14  1  0
 14 15  2  0
 15 16  1  0
 16 17  2  0
 17 18  1  0
 18 19  2  0
 19 20  1  0
 20 21  2  0
 11 22  1  0
 22 23  1  0
 23 24  1  0
 24 25  1  0
  8 26  1  0
 26 27  2  0
 27 28  1  0
 28 29  1  0
 28 30  2  0
 30 31  1  0
 31 32  2  0
 32 33  1  0
 33 34  2  0
 33  6  1  0
 23  8  1  0
 32 26  1  0
 21 12  1  0
 25 23  1  0
 21 16  1  0
M  END
$$$$
