


 39 44  0  0  0  0  0  0  0  0999 V2000
    9.8803    1.0825   23.4756 N   0  0  0  0  0  0  0  0  0  0  0  0
    8.5236    0.5072   23.7551 C   0  0  0  0  0  0  0  0  0  0  0  0
    8.3936   -0.7477   24.5665 C   0  0  0  0  0  0  0  0  0  0  0  0
    8.1085   -1.9894   25.3581 C   0  0  0  0  0  0  0  0  0  0  0  0
    8.6969   -2.8594   25.9690 O   0  0  0  0  0  0  0  0  0  0  0  0
    6.6224   -2.1915   25.3843 N   0  0  0  0  0  0  0  0  0  0  0  0
    5.9891   -1.0746   24.6088 C   0  0  0  0  0  0  0  0  0  0  0  0
    7.0837   -0.1823   24.1033 C   0  0  0  0  0  0  0  0  0  0  0  0
    6.9006    1.0577   23.2794 C   0  0  0  0  0  0  0  0  0  0  0  0
    9.6206   -1.4273   25.0984 C   0  0  0  0  0  0  0  0  0  0  0  0
    9.4907   -2.6822   25.9097 C   0  0  0  0  0  0  0  0  0  0  0  0
   10.7175   -3.3618   26.4416 C   0  0  0  0  0  0  0  0  0  0  0  0
   10.5877   -4.6167   27.2530 Cl  0  0  0  0  0  0  0  0  0  0  0  0
   12.0743   -2.7864   26.1621 C   0  0  0  0  0  0  0  0  0  0  0  0
   12.2042   -1.5316   25.3507 C   0  0  0  0  0  0  0  0  0  0  0  0
   10.9774   -0.8520   24.8188 C   0  0  0  0  0  0  0  0  0  0  0  0
   11.1072    0.4030   24.0074 C   0  0  0  0  0  0  0  0  0  0  0  0
   12.4640    0.9783   23.7279 O   0  0  0  0  0  0  0  0  0  0  0  0
    5.8971   -3.3134   26.0663 C   0  0  0  0  0  0  0  0  0  0  0  0
    5.5558   -4.5592   25.3036 C   0  0  0  0  0  0  0  0  0  0  0  0
    4.8305   -5.6811   25.9856 N   0  0  0  0  0  0  0  0  0  0  0  0
    4.4463   -5.5573   27.4303 C   0  0  0  0  0  0  0  0  0  0  0  0
    4.7876   -4.3115   28.1930 C   0  0  0  0  0  0  0  0  0  0  0  0
    4.4034   -4.1878   29.6377 C   0  0  0  0  0  0  0  0  0  0  0  0
    4.7447   -2.9420   30.4003 C   0  0  0  0  0  0  0  0  0  0  0  0
    5.4701   -1.8200   29.7183 C   0  0  0  0  0  0  0  0  0  0  0  0
    5.8542   -1.9438   28.2737 C   0  0  0  0  0  0  0  0  0  0  0  0
    5.5129   -3.1896   27.5110 C   0  0  0  0  0  0  0  0  0  0  0  0
   10.0102    2.3375   22.6642 C   0  0  0  0  0  0  0  0  0  0  0  0
    9.1977    3.5474   23.0190 C   0  0  0  0  0  0  0  0  0  0  0  0
    7.6499    5.9501   23.9304 C   0  0  0  0  0  0  0  0  0  0  0  0
    9.0269    6.1173   23.3595 C   0  0  0  0  0  0  0  0  0  0  0  0
    9.6300    7.4860   23.2444 C   0  0  0  0  0  0  0  0  0  0  0  0
   11.0070    7.6531   22.6735 O   0  0  0  0  0  0  0  0  0  0  0  0
   11.7809    6.4517   22.2178 C   0  0  0  0  0  0  0  0  0  0  0  0
   11.1778    5.0831   22.3330 C   0  0  0  0  0  0  0  0  0  0  0  0
   11.9518    3.8818   21.8773 C   0  0  0  0  0  0  0  0  0  0  0  0
    9.8008    4.9160   22.9038 N   0  0  0  0  0  0  0  0  0  0  0  0
   10.3271    4.0990   22.5940 H   0  0  0  0  0  0  0  0  0  0  0  0
 32 31  1  0  0  0
 32 33  1  0  0  0
 33 34  1  0  0  0
 34 35  1  0  0  0
 35 36  1  0  0  0
 36 37  1  0  0  0
 36 38  1  0  0  0
 38 30  1  0  0  0
 30 29  1  0  0  0
 29  1  1  0  0  0
  1  2  1  0  0  0
  3  2  1  0  0  0
  3  4  1  0  0  0
  4  5  2  0  0  0
  4  6  1  0  0  0
  6 19  1  0  0  0
 19 20  2  0  0  0
 20 21  1  0  0  0
 21 22  2  0  0  0
 22 23  1  0  0  0
 23 24  2  0  0  0
 24 25  1  0  0  0
 25 26  2  0  0  0
 26 27  1  0  0  0
 27 28  2  0  0  0
  6  7  1  0  0  0
  7  8  1  0  0  0
  8  9  1  0  0  0
  3 10  1  0  0  0
 10 11  2  0  0  0
 11 12  1  0  0  0
 12 13  1  0  0  0
 12 14  2  0  0  0
 14 15  1  0  0  0
 15 16  2  0  0  0
 16 17  1  0  0  0
 17 18  2  0  0  0
 38 32  1  0  0  0
 17  1  1  0  0  0
  8  3  1  0  0  0
 16 10  1  0  0  0
 28 19  1  0  0  0
 28 23  1  0  0  0
 38 39  1  0  0  0
M  CHG 1  38   1
M  END
> <minimizedAffinity>
-8.64317

> <CNNscore>
0.3065047860

> <CNNaffinity>
6.6166625023

> <CNN_VS>
2.0280387402

> <CNNaffinity_variance>
0.1323654354

$$$$



 39 44  0  0  0  0  0  0  0  0999 V2000
   10.5060    0.8808   23.7024 N   0  0  0  0  0  0  0  0  0  0  0  0
    9.1176    0.4866   24.1107 C   0  0  0  0  0  0  0  0  0  0  0  0
    8.9021   -0.7357   24.9531 C   0  0  0  0  0  0  0  0  0  0  0  0
    8.5332   -1.9251   25.7893 C   0  0  0  0  0  0  0  0  0  0  0  0
    9.0584   -2.8594   26.3617 O   0  0  0  0  0  0  0  0  0  0  0  0
    7.0419   -1.9343   25.9499 N   0  0  0  0  0  0  0  0  0  0  0  0
    6.4890   -0.7505   25.2130 C   0  0  0  0  0  0  0  0  0  0  0  0
    7.6387   -0.0098   24.5969 C   0  0  0  0  0  0  0  0  0  0  0  0
    7.5419    1.2379   23.7699 C   0  0  0  0  0  0  0  0  0  0  0  0
   10.0751   -1.5638   25.3872 C   0  0  0  0  0  0  0  0  0  0  0  0
    9.8597   -2.7860   26.2295 C   0  0  0  0  0  0  0  0  0  0  0  0
   11.0327   -3.6140   26.6636 C   0  0  0  0  0  0  0  0  0  0  0  0
   10.8173   -4.8364   27.5060 Cl  0  0  0  0  0  0  0  0  0  0  0  0
   12.4211   -3.2198   26.2553 C   0  0  0  0  0  0  0  0  0  0  0  0
   12.6366   -1.9975   25.4129 C   0  0  0  0  0  0  0  0  0  0  0  0
   11.4636   -1.1695   24.9789 C   0  0  0  0  0  0  0  0  0  0  0  0
   11.6790    0.0528   24.1365 C   0  0  0  0  0  0  0  0  0  0  0  0
   13.0675    0.4471   23.7282 O   0  0  0  0  0  0  0  0  0  0  0  0
    6.2436   -2.9490   26.7134 C   0  0  0  0  0  0  0  0  0  0  0  0
    6.0741   -2.8080   28.1972 C   0  0  0  0  0  0  0  0  0  0  0  0
    5.2758   -3.8228   28.9607 N   0  0  0  0  0  0  0  0  0  0  0  0
    4.6470   -4.9786   28.2404 C   0  0  0  0  0  0  0  0  0  0  0  0
    4.8164   -5.1196   26.7567 C   0  0  0  0  0  0  0  0  0  0  0  0
    4.1876   -6.2754   26.0365 C   0  0  0  0  0  0  0  0  0  0  0  0
    4.3571   -6.4164   24.5528 C   0  0  0  0  0  0  0  0  0  0  0  0
    5.1554   -5.4016   23.7893 C   0  0  0  0  0  0  0  0  0  0  0  0
    5.7842   -4.2458   24.5095 C   0  0  0  0  0  0  0  0  0  0  0  0
    5.6147   -4.1048   25.9932 C   0  0  0  0  0  0  0  0  0  0  0  0
   10.7215    2.1032   22.8600 C   0  0  0  0  0  0  0  0  0  0  0  0
    9.6008    3.0785   22.6532 C   0  0  0  0  0  0  0  0  0  0  0  0
   12.2486    4.2627   21.8874 C   0  0  0  0  0  0  0  0  0  0  0  0
   11.1677    5.1404   22.4454 C   0  0  0  0  0  0  0  0  0  0  0  0
   11.4108    6.6102   22.6204 C   0  0  0  0  0  0  0  0  0  0  0  0
   10.3299    7.4879   23.1784 O   0  0  0  0  0  0  0  0  0  0  0  0
    9.0059    6.8957   23.5614 C   0  0  0  0  0  0  0  0  0  0  0  0
    8.7629    5.4260   23.3863 C   0  0  0  0  0  0  0  0  0  0  0  0
    7.4390    4.8339   23.7692 C   0  0  0  0  0  0  0  0  0  0  0  0
    9.8438    4.5483   22.8283 N   0  0  0  0  0  0  0  0  0  0  0  0
    8.9435    4.1456   23.0887 H   0  0  0  0  0  0  0  0  0  0  0  0
 32 31  1  0  0  0
 32 33  1  0  0  0
 33 34  1  0  0  0
 34 35  1  0  0  0
 35 36  1  0  0  0
 36 37  1  0  0  0
 36 38  1  0  0  0
 38 30  1  0  0  0
 30 29  1  0  0  0
 29  1  1  0  0  0
  1  2  1  0  0  0
  3  2  1  0  0  0
  3  4  1  0  0  0
  4  5  2  0  0  0
  4  6  1  0  0  0
  6 19  1  0  0  0
 19 20  2  0  0  0
 20 21  1  0  0  0
 21 22  2  0  0  0
 22 23  1  0  0  0
 23 24  2  0  0  0
 24 25  1  0  0  0
 25 26  2  0  0  0
 26 27  1  0  0  0
 27 28  2  0  0  0
  6  7  1  0  0  0
  7  8  1  0  0  0
  8  9  1  0  0  0
  3 10  1  0  0  0
 10 11  2  0  0  0
 11 12  1  0  0  0
 12 13  1  0  0  0
 12 14  2  0  0  0
 14 15  1  0  0  0
 15 16  2  0  0  0
 16 17  1  0  0  0
 17 18  2  0  0  0
 38 32  1  0  0  0
 17  1  1  0  0  0
  8  3  1  0  0  0
 16 10  1  0  0  0
 28 19  1  0  0  0
 28 23  1  0  0  0
 38 39  1  0  0  0
M  CHG 1  38   1
M  END
> <minimizedAffinity>
-9.06522

> <CNNscore>
0.2814990878

> <CNNaffinity>
6.5780458450

> <CNN_VS>
1.8517138958

> <CNNaffinity_variance>
0.2473194152

$$$$



 39 44  0  0  0  0  0  0  0  0999 V2000
   10.4455    0.8919   23.6921 N   0  0  0  0  0  0  0  0  0  0  0  0
    9.0652    0.5050   24.1338 C   0  0  0  0  0  0  0  0  0  0  0  0
    8.8630   -0.7191   24.9768 C   0  0  0  0  0  0  0  0  0  0  0  0
    8.5076   -1.9093   25.8176 C   0  0  0  0  0  0  0  0  0  0  0  0
    9.0408   -2.8492   26.3732 O   0  0  0  0  0  0  0  0  0  0  0  0
    7.0207   -1.9095   26.0157 N   0  0  0  0  0  0  0  0  0  0  0  0
    6.4572   -0.7194   25.2973 C   0  0  0  0  0  0  0  0  0  0  0  0
    7.5958    0.0163   24.6552 C   0  0  0  0  0  0  0  0  0  0  0  0
    7.4864    1.2677   23.8355 C   0  0  0  0  0  0  0  0  0  0  0  0
   10.0412   -1.5563   25.3781 C   0  0  0  0  0  0  0  0  0  0  0  0
    9.8390   -2.7804   26.2211 C   0  0  0  0  0  0  0  0  0  0  0  0
   11.0172   -3.6176   26.6224 C   0  0  0  0  0  0  0  0  0  0  0  0
   10.8150   -4.8418   27.4654 Cl  0  0  0  0  0  0  0  0  0  0  0  0
   12.3975   -3.2307   26.1807 C   0  0  0  0  0  0  0  0  0  0  0  0
   12.5996   -2.0066   25.3377 C   0  0  0  0  0  0  0  0  0  0  0  0
   11.4215   -1.1694   24.9364 C   0  0  0  0  0  0  0  0  0  0  0  0
   11.6236    0.0547   24.0934 C   0  0  0  0  0  0  0  0  0  0  0  0
   13.0039    0.4416   23.6516 O   0  0  0  0  0  0  0  0  0  0  0  0
    6.2353   -2.9221   26.7953 C   0  0  0  0  0  0  0  0  0  0  0  0
    6.1355   -2.8068   28.2876 C   0  0  0  0  0  0  0  0  0  0  0  0
    5.3501   -3.8194   29.0672 N   0  0  0  0  0  0  0  0  0  0  0  0
    4.6644   -4.9472   28.3546 C   0  0  0  0  0  0  0  0  0  0  0  0
    4.7641   -5.0624   26.8623 C   0  0  0  0  0  0  0  0  0  0  0  0
    4.0784   -6.1903   26.1497 C   0  0  0  0  0  0  0  0  0  0  0  0
    4.1782   -6.3055   24.6574 C   0  0  0  0  0  0  0  0  0  0  0  0
    4.9636   -5.2929   23.8778 C   0  0  0  0  0  0  0  0  0  0  0  0
    5.6493   -4.1651   24.5904 C   0  0  0  0  0  0  0  0  0  0  0  0
    5.5496   -4.0499   26.0827 C   0  0  0  0  0  0  0  0  0  0  0  0
   10.6476    2.1161   22.8490 C   0  0  0  0  0  0  0  0  0  0  0  0
    9.5304    3.1025   22.6790 C   0  0  0  0  0  0  0  0  0  0  0  0
    7.4268    4.9048   23.8306 C   0  0  0  0  0  0  0  0  0  0  0  0
    8.7465    5.4724   23.3990 C   0  0  0  0  0  0  0  0  0  0  0  0
    9.0143    6.9413   23.5433 C   0  0  0  0  0  0  0  0  0  0  0  0
   10.3340    7.5089   23.1117 O   0  0  0  0  0  0  0  0  0  0  0  0
   11.3858    6.6077   22.5359 C   0  0  0  0  0  0  0  0  0  0  0  0
   11.1179    5.1389   22.3917 C   0  0  0  0  0  0  0  0  0  0  0  0
   12.1697    4.2377   21.8159 C   0  0  0  0  0  0  0  0  0  0  0  0
    9.7983    4.5713   22.8232 N   0  0  0  0  0  0  0  0  0  0  0  0
   10.5135    3.9584   22.4317 H   0  0  0  0  0  0  0  0  0  0  0  0
 32 31  1  0  0  0
 32 33  1  0  0  0
 33 34  1  0  0  0
 34 35  1  0  0  0
 35 36  1  0  0  0
 36 37  1  0  0  0
 36 38  1  0  0  0
 38 30  1  0  0  0
 30 29  1  0  0  0
 29  1  1  0  0  0
  1  2  1  0  0  0
  3  2  1  0  0  0
  3  4  1  0  0  0
  4  5  2  0  0  0
  4  6  1  0  0  0
  6 19  1  0  0  0
 19 20  2  0  0  0
 20 21  1  0  0  0
 21 22  2  0  0  0
 22 23  1  0  0  0
 23 24  2  0  0  0
 24 25  1  0  0  0
 25 26  2  0  0  0
 26 27  1  0  0  0
 27 28  2  0  0  0
  6  7  1  0  0  0
  7  8  1  0  0  0
  8  9  1  0  0  0
  3 10  1  0  0  0
 10 11  2  0  0  0
 11 12  1  0  0  0
 12 13  1  0  0  0
 12 14  2  0  0  0
 14 15  1  0  0  0
 15 16  2  0  0  0
 16 17  1  0  0  0
 17 18  2  0  0  0
 38 32  1  0  0  0
 17  1  1  0  0  0
  8  3  1  0  0  0
 16 10  1  0  0  0
 28 19  1  0  0  0
 28 23  1  0  0  0
 38 39  1  0  0  0
M  CHG 1  38   1
M  END
> <minimizedAffinity>
-9.07636

> <CNNscore>
0.2778580785

> <CNNaffinity>
6.5645093918

> <CNN_VS>
1.8240019083

> <CNNaffinity_variance>
0.2469706535

$$$$



 39 44  0  0  0  0  0  0  0  0999 V2000
    9.9061    1.5604   23.4488 N   0  0  0  0  0  0  0  0  0  0  0  0
    8.5851    1.2638   24.0945 C   0  0  0  0  0  0  0  0  0  0  0  0
    8.4126    0.0178   24.9116 C   0  0  0  0  0  0  0  0  0  0  0  0
    8.0920   -1.1820   25.7529 C   0  0  0  0  0  0  0  0  0  0  0  0
    8.6220   -2.1895   26.1776 O   0  0  0  0  0  0  0  0  0  0  0  0
    6.6615   -1.0724   26.1906 N   0  0  0  0  0  0  0  0  0  0  0  0
    6.0979    0.1952   25.6198 C   0  0  0  0  0  0  0  0  0  0  0  0
    7.1802    0.8689   24.8294 C   0  0  0  0  0  0  0  0  0  0  0  0
    7.0524    2.1661   24.0870 C   0  0  0  0  0  0  0  0  0  0  0  0
    9.5612   -0.9317   25.0830 C   0  0  0  0  0  0  0  0  0  0  0  0
    9.3887   -2.1777   25.9002 C   0  0  0  0  0  0  0  0  0  0  0  0
   10.5373   -3.1271   26.0716 C   0  0  0  0  0  0  0  0  0  0  0  0
   10.3648   -4.3731   26.8888 Cl  0  0  0  0  0  0  0  0  0  0  0  0
   11.8583   -2.8305   25.4259 C   0  0  0  0  0  0  0  0  0  0  0  0
   12.0308   -1.5845   24.6088 C   0  0  0  0  0  0  0  0  0  0  0  0
   10.8822   -0.6351   24.4374 C   0  0  0  0  0  0  0  0  0  0  0  0
   11.0547    0.6110   23.6202 C   0  0  0  0  0  0  0  0  0  0  0  0
   12.3757    0.9076   22.9745 O   0  0  0  0  0  0  0  0  0  0  0  0
    5.9240   -2.0574   27.0484 C   0  0  0  0  0  0  0  0  0  0  0  0
    6.6856   -3.0660   27.8565 C   0  0  0  0  0  0  0  0  0  0  0  0
    5.9481   -4.0510   28.7143 N   0  0  0  0  0  0  0  0  0  0  0  0
    4.4491   -4.0274   28.7642 C   0  0  0  0  0  0  0  0  0  0  0  0
    3.6876   -3.0188   27.9561 C   0  0  0  0  0  0  0  0  0  0  0  0
    2.1886   -2.9953   28.0060 C   0  0  0  0  0  0  0  0  0  0  0  0
    1.4271   -1.9866   27.1979 C   0  0  0  0  0  0  0  0  0  0  0  0
    2.1646   -1.0016   26.3400 C   0  0  0  0  0  0  0  0  0  0  0  0
    3.6636   -1.0252   26.2902 C   0  0  0  0  0  0  0  0  0  0  0  0
    4.4251   -2.0338   27.0983 C   0  0  0  0  0  0  0  0  0  0  0  0
   10.0786    2.8064   22.6316 C   0  0  0  0  0  0  0  0  0  0  0  0
    9.3553    4.0626   23.0177 C   0  0  0  0  0  0  0  0  0  0  0  0
    8.0684    6.5217   24.1562 C   0  0  0  0  0  0  0  0  0  0  0  0
    9.4027    6.6190   23.4779 C   0  0  0  0  0  0  0  0  0  0  0  0
   10.0936    7.9460   23.3689 C   0  0  0  0  0  0  0  0  0  0  0  0
   11.4279    8.0434   22.6905 O   0  0  0  0  0  0  0  0  0  0  0  0
   12.0714    6.8137   22.1213 C   0  0  0  0  0  0  0  0  0  0  0  0
   11.3805    5.4868   22.2303 C   0  0  0  0  0  0  0  0  0  0  0  0
   12.0239    4.2573   21.6611 C   0  0  0  0  0  0  0  0  0  0  0  0
   10.0462    5.3895   22.9086 N   0  0  0  0  0  0  0  0  0  0  0  0
   10.4837    4.5533   22.5215 H   0  0  0  0  0  0  0  0  0  0  0  0
 32 31  1  0  0  0
 32 33  1  0  0  0
 33 34  1  0  0  0
 34 35  1  0  0  0
 35 36  1  0  0  0
 36 37  1  0  0  0
 36 38  1  0  0  0
 38 30  1  0  0  0
 30 29  1  0  0  0
 29  1  1  0  0  0
  1  2  1  0  0  0
  3  2  1  0  0  0
  3  4  1  0  0  0
  4  5  2  0  0  0
  4  6  1  0  0  0
  6 19  1  0  0  0
 19 20  2  0  0  0
 20 21  1  0  0  0
 21 22  2  0  0  0
 22 23  1  0  0  0
 23 24  2  0  0  0
 24 25  1  0  0  0
 25 26  2  0  0  0
 26 27  1  0  0  0
 27 28  2  0  0  0
  6  7  1  0  0  0
  7  8  1  0  0  0
  8  9  1  0  0  0
  3 10  1  0  0  0
 10 11  2  0  0  0
 11 12  1  0  0  0
 12 13  1  0  0  0
 12 14  2  0  0  0
 14 15  1  0  0  0
 15 16  2  0  0  0
 16 17  1  0  0  0
 17 18  2  0  0  0
 38 32  1  0  0  0
 17  1  1  0  0  0
  8  3  1  0  0  0
 16 10  1  0  0  0
 28 19  1  0  0  0
 28 23  1  0  0  0
 38 39  1  0  0  0
M  CHG 1  38   1
M  END
> <minimizedAffinity>
-7.68542

> <CNNscore>
0.2389071435

> <CNNaffinity>
6.5293550491

> <CNN_VS>
1.5599095821

> <CNNaffinity_variance>
0.1434424073

$$$$



 39 44  0  0  0  0  0  0  0  0999 V2000
    9.7303    0.6384   22.9756 N   0  0  0  0  0  0  0  0  0  0  0  0
    8.5760   -0.3101   22.8415 C   0  0  0  0  0  0  0  0  0  0  0  0
    8.6004   -1.6273   23.5587 C   0  0  0  0  0  0  0  0  0  0  0  0
    8.4838   -2.9723   24.2124 C   0  0  0  0  0  0  0  0  0  0  0  0
    9.1103   -3.7053   24.9517 O   0  0  0  0  0  0  0  0  0  0  0  0
    7.1714   -3.5736   23.8050 N   0  0  0  0  0  0  0  0  0  0  0  0
    6.4768   -2.6002   22.8995 C   0  0  0  0  0  0  0  0  0  0  0  0
    7.3600   -1.3973   22.7472 C   0  0  0  0  0  0  0  0  0  0  0  0
    7.0560   -0.1785   21.9274 C   0  0  0  0  0  0  0  0  0  0  0  0
    9.7791   -1.9961   24.4100 C   0  0  0  0  0  0  0  0  0  0  0  0
    9.8035   -3.3133   25.1271 C   0  0  0  0  0  0  0  0  0  0  0  0
   10.9822   -3.6820   25.9784 C   0  0  0  0  0  0  0  0  0  0  0  0
   11.0066   -4.9993   26.6956 Cl  0  0  0  0  0  0  0  0  0  0  0  0
   12.1365   -2.7335   26.1125 C   0  0  0  0  0  0  0  0  0  0  0  0
   12.1121   -1.4163   25.3954 C   0  0  0  0  0  0  0  0  0  0  0  0
   10.9334   -1.0476   24.5441 C   0  0  0  0  0  0  0  0  0  0  0  0
   10.9090    0.2696   23.8269 C   0  0  0  0  0  0  0  0  0  0  0  0
   12.0633    1.2181   23.9610 O   0  0  0  0  0  0  0  0  0  0  0  0
    6.6459   -4.9130   24.2288 C   0  0  0  0  0  0  0  0  0  0  0  0
    7.2127   -6.1653   23.6283 C   0  0  0  0  0  0  0  0  0  0  0  0
    6.6871   -7.5048   24.0521 N   0  0  0  0  0  0  0  0  0  0  0  0
    5.5948   -7.5920   25.0763 C   0  0  0  0  0  0  0  0  0  0  0  0
    5.0279   -6.3397   25.6768 C   0  0  0  0  0  0  0  0  0  0  0  0
    3.9355   -6.4270   26.7011 C   0  0  0  0  0  0  0  0  0  0  0  0
    3.3687   -5.1746   27.3015 C   0  0  0  0  0  0  0  0  0  0  0  0
    3.8943   -3.8352   26.8778 C   0  0  0  0  0  0  0  0  0  0  0  0
    4.9867   -3.7480   25.8535 C   0  0  0  0  0  0  0  0  0  0  0  0
    5.5535   -5.0002   25.2530 C   0  0  0  0  0  0  0  0  0  0  0  0
    9.7059    1.9556   22.2584 C   0  0  0  0  0  0  0  0  0  0  0  0
   10.3671    3.1550   22.8702 C   0  0  0  0  0  0  0  0  0  0  0  0
   11.6747    5.7673   22.1878 C   0  0  0  0  0  0  0  0  0  0  0  0
   10.2575    5.7436   22.6787 C   0  0  0  0  0  0  0  0  0  0  0  0
    9.4941    7.0262   22.8284 C   0  0  0  0  0  0  0  0  0  0  0  0
    8.0769    7.0025   23.3194 O   0  0  0  0  0  0  0  0  0  0  0  0
    7.4232    5.6963   23.6606 C   0  0  0  0  0  0  0  0  0  0  0  0
    8.1866    4.4138   23.5109 C   0  0  0  0  0  0  0  0  0  0  0  0
    7.5328    3.1076   23.8521 C   0  0  0  0  0  0  0  0  0  0  0  0
    9.6037    4.4375   23.0199 N   0  0  0  0  0  0  0  0  0  0  0  0
    9.1592    3.5493   23.2520 H   0  0  0  0  0  0  0  0  0  0  0  0
 32 31  1  0  0  0
 32 33  1  0  0  0
 33 34  1  0  0  0
 34 35  1  0  0  0
 35 36  1  0  0  0
 36 37  1  0  0  0
 36 38  1  0  0  0
 38 30  1  0  0  0
 30 29  1  0  0  0
 29  1  1  0  0  0
  1  2  1  0  0  0
  3  2  1  0  0  0
  3  4  1  0  0  0
  4  5  2  0  0  0
  4  6  1  0  0  0
  6 19  1  0  0  0
 19 20  2  0  0  0
 20 21  1  0  0  0
 21 22  2  0  0  0
 22 23  1  0  0  0
 23 24  2  0  0  0
 24 25  1  0  0  0
 25 26  2  0  0  0
 26 27  1  0  0  0
 27 28  2  0  0  0
  6  7  1  0  0  0
  7  8  1  0  0  0
  8  9  1  0  0  0
  3 10  1  0  0  0
 10 11  2  0  0  0
 11 12  1  0  0  0
 12 13  1  0  0  0
 12 14  2  0  0  0
 14 15  1  0  0  0
 15 16  2  0  0  0
 16 17  1  0  0  0
 17 18  2  0  0  0
 38 32  1  0  0  0
 17  1  1  0  0  0
  8  3  1  0  0  0
 16 10  1  0  0  0
 28 19  1  0  0  0
 28 23  1  0  0  0
 38 39  1  0  0  0
M  CHG 1  38   1
M  END
> <minimizedAffinity>
-9.14935

> <CNNscore>
0.1927876920

> <CNNaffinity>
6.4726319313

> <CNN_VS>
1.2478437424

> <CNNaffinity_variance>
0.2788937986

$$$$



 39 44  0  0  0  0  0  0  0  0999 V2000
    9.6999    0.6505   22.9863 N   0  0  0  0  0  0  0  0  0  0  0  0
    8.5423   -0.2932   22.8478 C   0  0  0  0  0  0  0  0  0  0  0  0
    8.5591   -1.6110   23.5641 C   0  0  0  0  0  0  0  0  0  0  0  0
    8.4350   -2.9560   24.2165 C   0  0  0  0  0  0  0  0  0  0  0  0
    9.0562   -3.6920   24.9573 O   0  0  0  0  0  0  0  0  0  0  0  0
    7.1215   -3.5517   23.8045 N   0  0  0  0  0  0  0  0  0  0  0  0
    6.4337   -2.5749   22.8974 C   0  0  0  0  0  0  0  0  0  0  0  0
    7.3222   -1.3755   22.7489 C   0  0  0  0  0  0  0  0  0  0  0  0
    7.0257   -0.1549   21.9290 C   0  0  0  0  0  0  0  0  0  0  0  0
    9.7336   -1.9851   24.4190 C   0  0  0  0  0  0  0  0  0  0  0  0
    9.7504   -3.3029   25.1352 C   0  0  0  0  0  0  0  0  0  0  0  0
   10.9248   -3.6769   25.9900 C   0  0  0  0  0  0  0  0  0  0  0  0
   10.9417   -4.9948   26.7064 Cl  0  0  0  0  0  0  0  0  0  0  0  0
   12.0825   -2.7332   26.1285 C   0  0  0  0  0  0  0  0  0  0  0  0
   12.0657   -1.4154   25.4122 C   0  0  0  0  0  0  0  0  0  0  0  0
   10.8912   -1.0414   24.5575 C   0  0  0  0  0  0  0  0  0  0  0  0
   10.8744    0.2765   23.8411 C   0  0  0  0  0  0  0  0  0  0  0  0
   12.0320    1.2202   23.9796 O   0  0  0  0  0  0  0  0  0  0  0  0
    6.5892   -4.8894   24.2257 C   0  0  0  0  0  0  0  0  0  0  0  0
    7.1663   -6.1443   23.6406 C   0  0  0  0  0  0  0  0  0  0  0  0
    6.6341   -7.4819   24.0617 N   0  0  0  0  0  0  0  0  0  0  0  0
    5.5247   -7.5647   25.0679 C   0  0  0  0  0  0  0  0  0  0  0  0
    4.9476   -6.3098   25.6530 C   0  0  0  0  0  0  0  0  0  0  0  0
    3.8382   -6.3926   26.6593 C   0  0  0  0  0  0  0  0  0  0  0  0
    3.2612   -5.1377   27.2443 C   0  0  0  0  0  0  0  0  0  0  0  0
    3.7934   -3.8001   26.8231 C   0  0  0  0  0  0  0  0  0  0  0  0
    4.9028   -3.7173   25.8169 C   0  0  0  0  0  0  0  0  0  0  0  0
    5.4799   -4.9722   25.2319 C   0  0  0  0  0  0  0  0  0  0  0  0
    9.6831    1.9684   22.2700 C   0  0  0  0  0  0  0  0  0  0  0  0
   10.2993    3.1773   22.9092 C   0  0  0  0  0  0  0  0  0  0  0  0
    7.4675    3.0579   23.8919 C   0  0  0  0  0  0  0  0  0  0  0  0
    8.0853    4.3796   23.5432 C   0  0  0  0  0  0  0  0  0  0  0  0
    7.2870    5.6416   23.6860 C   0  0  0  0  0  0  0  0  0  0  0  0
    7.9048    6.9632   23.3373 O   0  0  0  0  0  0  0  0  0  0  0  0
    9.3208    7.0229   22.8459 C   0  0  0  0  0  0  0  0  0  0  0  0
   10.1190    5.7609   22.7032 C   0  0  0  0  0  0  0  0  0  0  0  0
   11.5349    5.8207   22.2119 C   0  0  0  0  0  0  0  0  0  0  0  0
    9.5012    4.4393   23.0519 N   0  0  0  0  0  0  0  0  0  0  0  0
   10.4641    4.4799   22.7177 H   0  0  0  0  0  0  0  0  0  0  0  0
 32 31  1  0  0  0
 32 33  1  0  0  0
 33 34  1  0  0  0
 34 35  1  0  0  0
 35 36  1  0  0  0
 36 37  1  0  0  0
 36 38  1  0  0  0
 38 30  1  0  0  0
 30 29  1  0  0  0
 29  1  1  0  0  0
  1  2  1  0  0  0
  3  2  1  0  0  0
  3  4  1  0  0  0
  4  5  2  0  0  0
  4  6  1  0  0  0
  6 19  1  0  0  0
 19 20  2  0  0  0
 20 21  1  0  0  0
 21 22  2  0  0  0
 22 23  1  0  0  0
 23 24  2  0  0  0
 24 25  1  0  0  0
 25 26  2  0  0  0
 26 27  1  0  0  0
 27 28  2  0  0  0
  6  7  1  0  0  0
  7  8  1  0  0  0
  8  9  1  0  0  0
  3 10  1  0  0  0
 10 11  2  0  0  0
 11 12  1  0  0  0
 12 13  1  0  0  0
 12 14  2  0  0  0
 14 15  1  0  0  0
 15 16  2  0  0  0
 16 17  1  0  0  0
 17 18  2  0  0  0
 38 32  1  0  0  0
 17  1  1  0  0  0
  8  3  1  0  0  0
 16 10  1  0  0  0
 28 19  1  0  0  0
 28 23  1  0  0  0
 38 39  1  0  0  0
M  CHG 1  38   1
M  END
> <minimizedAffinity>
-9.05189

> <CNNscore>
0.1796209961

> <CNNaffinity>
6.4393057823

> <CNN_VS>
1.1566345692

> <CNNaffinity_variance>
0.2947678268

$$$$



 39 44  0  0  0  0  0  0  0  0999 V2000
    6.1221    2.6437   21.6680 N   0  0  0  0  0  0  0  0  0  0  0  0
    7.4624    2.5543   22.3356 C   0  0  0  0  0  0  0  0  0  0  0  0
    8.0314    1.2148   22.6990 C   0  0  0  0  0  0  0  0  0  0  0  0
    8.7248   -0.0472   23.1189 C   0  0  0  0  0  0  0  0  0  0  0  0
    8.5547   -1.2503   23.1088 O   0  0  0  0  0  0  0  0  0  0  0  0
   10.0355    0.3297   23.7433 N   0  0  0  0  0  0  0  0  0  0  0  0
   10.1523    1.8247   23.7093 C   0  0  0  0  0  0  0  0  0  0  0  0
    8.9136    2.3718   23.0638 C   0  0  0  0  0  0  0  0  0  0  0  0
    8.6105    3.8213   22.8251 C   0  0  0  0  0  0  0  0  0  0  0  0
    7.2602   -0.0353   22.3947 C   0  0  0  0  0  0  0  0  0  0  0  0
    7.8292   -1.3747   22.7580 C   0  0  0  0  0  0  0  0  0  0  0  0
    7.0580   -2.6247   22.4537 C   0  0  0  0  0  0  0  0  0  0  0  0
    7.6270   -3.9642   22.8170 Cl  0  0  0  0  0  0  0  0  0  0  0  0
    5.7177   -2.5353   21.7861 C   0  0  0  0  0  0  0  0  0  0  0  0
    5.1487   -1.1958   21.4227 C   0  0  0  0  0  0  0  0  0  0  0  0
    5.9199    0.0542   21.7270 C   0  0  0  0  0  0  0  0  0  0  0  0
    5.3509    1.3937   21.3637 C   0  0  0  0  0  0  0  0  0  0  0  0
    4.0106    1.4832   20.6961 O   0  0  0  0  0  0  0  0  0  0  0  0
   11.0512   -0.6215   24.3035 C   0  0  0  0  0  0  0  0  0  0  0  0
   12.4866   -0.5209   23.8800 C   0  0  0  0  0  0  0  0  0  0  0  0
   13.5023   -1.4720   24.4401 N   0  0  0  0  0  0  0  0  0  0  0  0
   13.0825   -2.5238   25.4237 C   0  0  0  0  0  0  0  0  0  0  0  0
   11.6470   -2.6244   25.8472 C   0  0  0  0  0  0  0  0  0  0  0  0
   11.2272   -3.6762   26.8309 C   0  0  0  0  0  0  0  0  0  0  0  0
    9.7917   -3.7767   27.2544 C   0  0  0  0  0  0  0  0  0  0  0  0
    8.7760   -2.8256   26.6942 C   0  0  0  0  0  0  0  0  0  0  0  0
    9.1959   -1.7738   25.7106 C   0  0  0  0  0  0  0  0  0  0  0  0
   10.6313   -1.6732   25.2871 C   0  0  0  0  0  0  0  0  0  0  0  0
    5.5531    3.9833   21.3047 C   0  0  0  0  0  0  0  0  0  0  0  0
    4.6181    4.6816   22.2472 C   0  0  0  0  0  0  0  0  0  0  0  0
    5.6440    7.4981   22.1276 C   0  0  0  0  0  0  0  0  0  0  0  0
    4.2440    7.1904   21.6856 C   0  0  0  0  0  0  0  0  0  0  0  0
    3.3569    8.2911   21.1838 C   0  0  0  0  0  0  0  0  0  0  0  0
    1.9569    7.9834   20.7418 O   0  0  0  0  0  0  0  0  0  0  0  0
    1.4440    6.5750   20.8017 C   0  0  0  0  0  0  0  0  0  0  0  0
    2.3310    5.4744   21.3034 C   0  0  0  0  0  0  0  0  0  0  0  0
    1.8181    4.0662   21.3632 C   0  0  0  0  0  0  0  0  0  0  0  0
    3.7310    5.7821   21.7454 N   0  0  0  0  0  0  0  0  0  0  0  0
    3.3822    4.8245   21.7861 H   0  0  0  0  0  0  0  0  0  0  0  0
 32 31  1  0  0  0
 32 33  1  0  0  0
 33 34  1  0  0  0
 34 35  1  0  0  0
 35 36  1  0  0  0
 36 37  1  0  0  0
 36 38  1  0  0  0
 38 30  1  0  0  0
 30 29  1  0  0  0
 29  1  1  0  0  0
  1  2  1  0  0  0
  3  2  1  0  0  0
  3  4  1  0  0  0
  4  5  2  0  0  0
  4  6  1  0  0  0
  6 19  1  0  0  0
 19 20  2  0  0  0
 20 21  1  0  0  0
 21 22  2  0  0  0
 22 23  1  0  0  0
 23 24  2  0  0  0
 24 25  1  0  0  0
 25 26  2  0  0  0
 26 27  1  0  0  0
 27 28  2  0  0  0
  6  7  1  0  0  0
  7  8  1  0  0  0
  8  9  1  0  0  0
  3 10  1  0  0  0
 10 11  2  0  0  0
 11 12  1  0  0  0
 12 13  1  0  0  0
 12 14  2  0  0  0
 14 15  1  0  0  0
 15 16  2  0  0  0
 16 17  1  0  0  0
 17 18  2  0  0  0
 38 32  1  0  0  0
 17  1  1  0  0  0
  8  3  1  0  0  0
 16 10  1  0  0  0
 28 19  1  0  0  0
 28 23  1  0  0  0
 38 39  1  0  0  0
M  CHG 1  38   1
M  END
> <minimizedAffinity>
-7.94973

> <CNNscore>
0.1472644359

> <CNNaffinity>
6.5092415810

> <CNN_VS>
0.9585797787

> <CNNaffinity_variance>
0.1120726690

$$$$



 39 44  0  0  0  0  0  0  0  0999 V2000
    3.3463    4.5673   21.2290 N   0  0  0  0  0  0  0  0  0  0  0  0
    4.5678    4.5230   22.0985 C   0  0  0  0  0  0  0  0  0  0  0  0
    5.6205    3.4813   21.8605 C   0  0  0  0  0  0  0  0  0  0  0  0
    6.7513    2.5028   21.7432 C   0  0  0  0  0  0  0  0  0  0  0  0
    7.0946    1.5538   21.0664 O   0  0  0  0  0  0  0  0  0  0  0  0
    7.7553    2.8245   22.8101 N   0  0  0  0  0  0  0  0  0  0  0  0
    7.2451    4.0019   23.5869 C   0  0  0  0  0  0  0  0  0  0  0  0
    5.9257    4.4078   23.0000 C   0  0  0  0  0  0  0  0  0  0  0  0
    5.0629    5.5412   23.4701 C   0  0  0  0  0  0  0  0  0  0  0  0
    5.4516    2.4837   20.7530 C   0  0  0  0  0  0  0  0  0  0  0  0
    6.5042    1.4419   20.5151 C   0  0  0  0  0  0  0  0  0  0  0  0
    6.3354    0.4444   19.4077 C   0  0  0  0  0  0  0  0  0  0  0  0
    7.3880   -0.5974   19.1697 Cl  0  0  0  0  0  0  0  0  0  0  0  0
    5.1138    0.4887   18.5382 C   0  0  0  0  0  0  0  0  0  0  0  0
    4.0612    1.5304   18.7762 C   0  0  0  0  0  0  0  0  0  0  0  0
    4.2301    2.5279   19.8836 C   0  0  0  0  0  0  0  0  0  0  0  0
    3.1774    3.5697   20.1216 C   0  0  0  0  0  0  0  0  0  0  0  0
    1.9559    3.6140   19.2522 O   0  0  0  0  0  0  0  0  0  0  0  0
    9.0435    2.0966   23.0569 C   0  0  0  0  0  0  0  0  0  0  0  0
   10.3233    2.6181   22.4735 C   0  0  0  0  0  0  0  0  0  0  0  0
   11.6114    1.8902   22.7203 N   0  0  0  0  0  0  0  0  0  0  0  0
   11.6197    0.6409   23.5505 C   0  0  0  0  0  0  0  0  0  0  0  0
   10.3399    0.1195   24.1338 C   0  0  0  0  0  0  0  0  0  0  0  0
   10.3483   -1.1299   24.9640 C   0  0  0  0  0  0  0  0  0  0  0  0
    9.0685   -1.6512   25.5473 C   0  0  0  0  0  0  0  0  0  0  0  0
    7.7804   -0.9234   25.3005 C   0  0  0  0  0  0  0  0  0  0  0  0
    7.7720    0.3259   24.4704 C   0  0  0  0  0  0  0  0  0  0  0  0
    9.0518    0.8473   23.8870 C   0  0  0  0  0  0  0  0  0  0  0  0
    2.2936    5.6091   21.4670 C   0  0  0  0  0  0  0  0  0  0  0  0
    0.8421    5.2344   21.4142 C   0  0  0  0  0  0  0  0  0  0  0  0
    1.1444    8.1543   20.7956 C   0  0  0  0  0  0  0  0  0  0  0  0
    0.0862    7.3467   20.1041 C   0  0  0  0  0  0  0  0  0  0  0  0
   -0.8209    7.9991   19.1033 C   0  0  0  0  0  0  0  0  0  0  0  0
   -1.8790    7.1916   18.4118 O   0  0  0  0  0  0  0  0  0  0  0  0
   -2.0301    5.7316   18.7212 C   0  0  0  0  0  0  0  0  0  0  0  0
   -1.1231    5.0792   19.7220 C   0  0  0  0  0  0  0  0  0  0  0  0
   -1.2742    3.6193   20.0313 C   0  0  0  0  0  0  0  0  0  0  0  0
   -0.0649    5.8868   20.4134 N   0  0  0  0  0  0  0  0  0  0  0  0
   -0.1677    4.8940   20.6238 H   0  0  0  0  0  0  0  0  0  0  0  0
 32 31  1  0  0  0
 32 33  1  0  0  0
 33 34  1  0  0  0
 34 35  1  0  0  0
 35 36  1  0  0  0
 36 37  1  0  0  0
 36 38  1  0  0  0
 38 30  1  0  0  0
 30 29  1  0  0  0
 29  1  1  0  0  0
  1  2  1  0  0  0
  3  2  1  0  0  0
  3  4  1  0  0  0
  4  5  2  0  0  0
  4  6  1  0  0  0
  6 19  1  0  0  0
 19 20  2  0  0  0
 20 21  1  0  0  0
 21 22  2  0  0  0
 22 23  1  0  0  0
 23 24  2  0  0  0
 24 25  1  0  0  0
 25 26  2  0  0  0
 26 27  1  0  0  0
 27 28  2  0  0  0
  6  7  1  0  0  0
  7  8  1  0  0  0
  8  9  1  0  0  0
  3 10  1  0  0  0
 10 11  2  0  0  0
 11 12  1  0  0  0
 12 13  1  0  0  0
 12 14  2  0  0  0
 14 15  1  0  0  0
 15 16  2  0  0  0
 16 17  1  0  0  0
 17 18  2  0  0  0
 38 32  1  0  0  0
 17  1  1  0  0  0
  8  3  1  0  0  0
 16 10  1  0  0  0
 28 19  1  0  0  0
 28 23  1  0  0  0
 38 39  1  0  0  0
M  CHG 1  38   1
M  END
> <minimizedAffinity>
-8.79848

> <CNNscore>
0.1315802634

> <CNNaffinity>
5.9560031891

> <CNN_VS>
0.7836924791

> <CNNaffinity_variance>
0.1594418287

$$$$



 39 44  0  0  0  0  0  0  0  0999 V2000
    2.8457    4.4017   21.4888 N   0  0  0  0  0  0  0  0  0  0  0  0
    3.8599    4.0066   22.5209 C   0  0  0  0  0  0  0  0  0  0  0  0
    4.8598    2.9308   22.2166 C   0  0  0  0  0  0  0  0  0  0  0  0
    5.9164    1.8780   22.0568 C   0  0  0  0  0  0  0  0  0  0  0  0
    6.3189    1.0808   21.2330 O   0  0  0  0  0  0  0  0  0  0  0  0
    6.7051    1.8157   23.3312 N   0  0  0  0  0  0  0  0  0  0  0  0
    6.1360    2.8299   24.2786 C   0  0  0  0  0  0  0  0  0  0  0  0
    4.9956    3.5190   23.5897 C   0  0  0  0  0  0  0  0  0  0  0  0
    4.1410    4.6057   24.1718 C   0  0  0  0  0  0  0  0  0  0  0  0
    4.8456    2.2499   20.8800 C   0  0  0  0  0  0  0  0  0  0  0  0
    5.8455    1.1741   20.5756 C   0  0  0  0  0  0  0  0  0  0  0  0
    5.8312    0.4933   19.2391 C   0  0  0  0  0  0  0  0  0  0  0  0
    6.8312   -0.5826   18.9347 Cl  0  0  0  0  0  0  0  0  0  0  0  0
    4.8170    0.8883   18.2070 C   0  0  0  0  0  0  0  0  0  0  0  0
    3.8171    1.9642   18.5113 C   0  0  0  0  0  0  0  0  0  0  0  0
    3.8314    2.6450   19.8478 C   0  0  0  0  0  0  0  0  0  0  0  0
    2.8315    3.7209   20.1523 C   0  0  0  0  0  0  0  0  0  0  0  0
    1.8173    4.1160   19.1201 O   0  0  0  0  0  0  0  0  0  0  0  0
    7.8601    0.8999   23.6094 C   0  0  0  0  0  0  0  0  0  0  0  0
    7.6114   -0.4817   24.1380 C   0  0  0  0  0  0  0  0  0  0  0  0
    8.7664   -1.3974   24.4161 N   0  0  0  0  0  0  0  0  0  0  0  0
   10.1700   -0.9316   24.1657 C   0  0  0  0  0  0  0  0  0  0  0  0
   10.4187    0.4500   23.6370 C   0  0  0  0  0  0  0  0  0  0  0  0
   11.8224    0.9158   23.3865 C   0  0  0  0  0  0  0  0  0  0  0  0
   12.0710    2.2973   22.8579 C   0  0  0  0  0  0  0  0  0  0  0  0
   10.9160    3.2131   22.5798 C   0  0  0  0  0  0  0  0  0  0  0  0
    9.5124    2.7473   22.8302 C   0  0  0  0  0  0  0  0  0  0  0  0
    9.2637    1.3657   23.3589 C   0  0  0  0  0  0  0  0  0  0  0  0
    1.8458    5.4776   21.7932 C   0  0  0  0  0  0  0  0  0  0  0  0
    0.3789    5.2023   21.6434 C   0  0  0  0  0  0  0  0  0  0  0  0
    0.6516    8.1043   20.9339 C   0  0  0  0  0  0  0  0  0  0  0  0
   -0.2372    7.2130   20.1180 C   0  0  0  0  0  0  0  0  0  0  0  0
   -0.9897    7.7728   18.9473 C   0  0  0  0  0  0  0  0  0  0  0  0
   -1.8785    6.8815   18.1314 O   0  0  0  0  0  0  0  0  0  0  0  0
   -2.0148    5.4304   18.4862 C   0  0  0  0  0  0  0  0  0  0  0  0
   -1.2623    4.8707   19.6569 C   0  0  0  0  0  0  0  0  0  0  0  0
   -1.3986    3.4197   20.0116 C   0  0  0  0  0  0  0  0  0  0  0  0
   -0.3735    5.7620   20.4727 N   0  0  0  0  0  0  0  0  0  0  0  0
   -0.4662    4.7753   20.7140 H   0  0  0  0  0  0  0  0  0  0  0  0
 32 31  1  0  0  0
 32 33  1  0  0  0
 33 34  1  0  0  0
 34 35  1  0  0  0
 35 36  1  0  0  0
 36 37  1  0  0  0
 36 38  1  0  0  0
 38 30  1  0  0  0
 30 29  1  0  0  0
 29  1  1  0  0  0
  1  2  1  0  0  0
  3  2  1  0  0  0
  3  4  1  0  0  0
  4  5  2  0  0  0
  4  6  1  0  0  0
  6 19  1  0  0  0
 19 20  2  0  0  0
 20 21  1  0  0  0
 21 22  2  0  0  0
 22 23  1  0  0  0
 23 24  2  0  0  0
 24 25  1  0  0  0
 25 26  2  0  0  0
 26 27  1  0  0  0
 27 28  2  0  0  0
  6  7  1  0  0  0
  7  8  1  0  0  0
  8  9  1  0  0  0
  3 10  1  0  0  0
 10 11  2  0  0  0
 11 12  1  0  0  0
 12 13  1  0  0  0
 12 14  2  0  0  0
 14 15  1  0  0  0
 15 16  2  0  0  0
 16 17  1  0  0  0
 17 18  2  0  0  0
 38 32  1  0  0  0
 17  1  1  0  0  0
  8  3  1  0  0  0
 16 10  1  0  0  0
 28 19  1  0  0  0
 28 23  1  0  0  0
 38 39  1  0  0  0
M  CHG 1  38   1
M  END
> <minimizedAffinity>
-8.76552

> <CNNscore>
0.1313045919

> <CNNaffinity>
5.9998526573

> <CNN_VS>
0.7878081799

> <CNNaffinity_variance>
0.1160072833

$$$$
