


 24 27  0  0  0  0  0  0  0  0999 V2000
   -7.5788   -5.0155  -23.6037 C   0  0  0  0  0  0  0  0  0  0  0  0
   -7.5827   -3.7033  -22.8770 N   0  0  0  0  0  0  0  0  0  0  0  0
   -8.5542   -2.5804  -23.0899 C   0  0  0  0  0  0  0  0  0  0  0  0
   -8.1877   -1.4668  -22.1542 N   0  0  0  0  0  0  0  0  0  0  0  0
   -6.9897   -1.9014  -21.3630 N   0  0  0  0  0  0  0  0  0  0  0  0
   -6.6158   -3.2836  -21.8097 C   0  0  0  0  0  0  0  0  0  0  0  0
   -5.4753   -4.1025  -21.2819 O   0  0  0  0  0  0  0  0  0  0  0  0
   -6.2887   -1.0953  -20.3101 C   0  0  0  0  0  0  0  0  0  0  0  0
   -6.7792   -1.1244  -18.8928 C   0  0  0  0  0  0  0  0  0  0  0  0
   -6.0782   -0.3183  -17.8398 N   0  0  0  0  0  0  0  0  0  0  0  0
   -4.8867    0.5170  -18.2041 C   0  0  0  0  0  0  0  0  0  0  0  0
   -4.3962    0.5462  -19.6214 C   0  0  0  0  0  0  0  0  0  0  0  0
   -3.2048    1.3815  -19.9856 C   0  0  0  0  0  0  0  0  0  0  0  0
   -2.7143    1.4106  -21.4028 C   0  0  0  0  0  0  0  0  0  0  0  0
   -3.4153    0.6045  -22.4558 C   0  0  0  0  0  0  0  0  0  0  0  0
   -4.6068   -0.2308  -22.0916 C   0  0  0  0  0  0  0  0  0  0  0  0
   -5.0972   -0.2599  -20.6744 C   0  0  0  0  0  0  0  0  0  0  0  0
   -9.6923   -2.5725  -24.0669 C   0  0  0  0  0  0  0  0  0  0  0  0
  -11.0278   -2.0254  -23.6582 C   0  0  0  0  0  0  0  0  0  0  0  0
  -11.9392   -2.8419  -22.7907 C   0  0  0  0  0  0  0  0  0  0  0  0
  -13.2747   -2.2948  -22.3820 C   0  0  0  0  0  0  0  0  0  0  0  0
  -13.6988   -0.9311  -22.8408 C   0  0  0  0  0  0  0  0  0  0  0  0
  -12.7874   -0.1146  -23.7083 C   0  0  0  0  0  0  0  0  0  0  0  0
  -11.4519   -0.6617  -24.1170 C   0  0  0  0  0  0  0  0  0  0  0  0
  1  2  1  0  0  0
  2  3  1  0  0  0
  3 18  1  0  0  0
 18 19  1  0  0  0
 19 20  2  0  0  0
 20 21  1  0  0  0
 21 22  2  0  0  0
 22 23  1  0  0  0
 23 24  2  0  0  0
  3  4  2  0  0  0
  4  5  1  0  0  0
  5  8  1  0  0  0
  8  9  2  0  0  0
  9 10  1  0  0  0
 10 11  2  0  0  0
 11 12  1  0  0  0
 12 13  2  0  0  0
 13 14  1  0  0  0
 14 15  2  0  0  0
 15 16  1  0  0  0
 16 17  2  0  0  0
  5  6  1  0  0  0
  6  7  2  0  0  0
  6  2  1  0  0  0
 24 19  1  0  0  0
 17  8  1  0  0  0
 17 12  1  0  0  0
M  END
> <minimizedAffinity>
-7.41567

> <CNNscore>
0.7668197155

> <CNNaffinity>
5.7672891617

> <CNN_VS>
4.4224710464

> <CNNaffinity_variance>
0.1213195547

$$$$



 24 27  0  0  0  0  0  0  0  0999 V2000
   -7.9646   -0.8230  -25.6115 C   0  0  0  0  0  0  0  0  0  0  0  0
   -7.9450   -0.4258  -24.1651 N   0  0  0  0  0  0  0  0  0  0  0  0
   -9.0985    0.1388  -23.3901 C   0  0  0  0  0  0  0  0  0  0  0  0
   -8.6348    0.3900  -21.9859 N   0  0  0  0  0  0  0  0  0  0  0  0
   -7.1947   -0.0193  -21.8930 N   0  0  0  0  0  0  0  0  0  0  0  0
   -6.7684   -0.5236  -23.2399 C   0  0  0  0  0  0  0  0  0  0  0  0
   -5.4049   -1.0356  -23.5985 O   0  0  0  0  0  0  0  0  0  0  0  0
   -6.3324    0.0614  -20.6683 C   0  0  0  0  0  0  0  0  0  0  0  0
   -6.6961   -0.7220  -19.4420 C   0  0  0  0  0  0  0  0  0  0  0  0
   -5.8337   -0.6413  -18.2173 N   0  0  0  0  0  0  0  0  0  0  0  0
   -4.6077    0.2228  -18.2189 C   0  0  0  0  0  0  0  0  0  0  0  0
   -4.2439    1.0063  -19.4453 C   0  0  0  0  0  0  0  0  0  0  0  0
   -3.0179    1.8704  -19.4470 C   0  0  0  0  0  0  0  0  0  0  0  0
   -2.6542    2.6538  -20.6733 C   0  0  0  0  0  0  0  0  0  0  0  0
   -3.5165    2.5731  -21.8980 C   0  0  0  0  0  0  0  0  0  0  0  0
   -4.7425    1.7090  -21.8963 C   0  0  0  0  0  0  0  0  0  0  0  0
   -5.1063    0.9256  -20.6700 C   0  0  0  0  0  0  0  0  0  0  0  0
  -10.4741    0.4054  -23.9254 C   0  0  0  0  0  0  0  0  0  0  0  0
  -11.6336   -0.4249  -23.4607 C   0  0  0  0  0  0  0  0  0  0  0  0
  -13.0273    0.1244  -23.5358 C   0  0  0  0  0  0  0  0  0  0  0  0
  -14.1869   -0.7060  -23.0711 C   0  0  0  0  0  0  0  0  0  0  0  0
  -13.9527   -2.0857  -22.5314 C   0  0  0  0  0  0  0  0  0  0  0  0
  -12.5589   -2.6351  -22.4563 C   0  0  0  0  0  0  0  0  0  0  0  0
  -11.3994   -1.8047  -22.9210 C   0  0  0  0  0  0  0  0  0  0  0  0
  1  2  1  0  0  0
  2  3  1  0  0  0
  3 18  1  0  0  0
 18 19  1  0  0  0
 19 20  2  0  0  0
 20 21  1  0  0  0
 21 22  2  0  0  0
 22 23  1  0  0  0
 23 24  2  0  0  0
  3  4  2  0  0  0
  4  5  1  0  0  0
  5  8  1  0  0  0
  8  9  2  0  0  0
  9 10  1  0  0  0
 10 11  2  0  0  0
 11 12  1  0  0  0
 12 13  2  0  0  0
 13 14  1  0  0  0
 14 15  2  0  0  0
 15 16  1  0  0  0
 16 17  2  0  0  0
  5  6  1  0  0  0
  6  7  2  0  0  0
  6  2  1  0  0  0
 24 19  1  0  0  0
 17  8  1  0  0  0
 17 12  1  0  0  0
M  END
> <minimizedAffinity>
-6.71466

> <CNNscore>
0.6268872023

> <CNNaffinity>
5.4953351021

> <CNN_VS>
3.4449553490

> <CNNaffinity_variance>
0.0226337854

$$$$



 24 27  0  0  0  0  0  0  0  0999 V2000
   -6.8186   -5.4284  -23.7020 C   0  0  0  0  0  0  0  0  0  0  0  0
   -6.8388   -4.0460  -23.1201 N   0  0  0  0  0  0  0  0  0  0  0  0
   -7.5356   -2.8533  -23.7049 C   0  0  0  0  0  0  0  0  0  0  0  0
   -7.2930   -1.6838  -22.7974 N   0  0  0  0  0  0  0  0  0  0  0  0
   -6.4463   -2.1537  -21.6519 N   0  0  0  0  0  0  0  0  0  0  0  0
   -6.1656   -3.6136  -21.8513 C   0  0  0  0  0  0  0  0  0  0  0  0
   -5.3541   -4.4877  -20.9417 O   0  0  0  0  0  0  0  0  0  0  0  0
   -5.9649   -1.3115  -20.5078 C   0  0  0  0  0  0  0  0  0  0  0  0
   -6.5960   -1.4535  -19.1544 C   0  0  0  0  0  0  0  0  0  0  0  0
   -6.1146   -0.6113  -18.0103 N   0  0  0  0  0  0  0  0  0  0  0  0
   -5.0021    0.3728  -18.2195 C   0  0  0  0  0  0  0  0  0  0  0  0
   -4.3710    0.5148  -19.5729 C   0  0  0  0  0  0  0  0  0  0  0  0
   -3.2585    1.4990  -19.7821 C   0  0  0  0  0  0  0  0  0  0  0  0
   -2.6274    1.6409  -21.1355 C   0  0  0  0  0  0  0  0  0  0  0  0
   -3.1088    0.7988  -22.2796 C   0  0  0  0  0  0  0  0  0  0  0  0
   -4.2213   -0.1854  -22.0704 C   0  0  0  0  0  0  0  0  0  0  0  0
   -4.8524   -0.3273  -20.7170 C   0  0  0  0  0  0  0  0  0  0  0  0
   -8.3346   -2.8336  -24.9742 C   0  0  0  0  0  0  0  0  0  0  0  0
   -8.5030   -4.0912  -25.7740 C   0  0  0  0  0  0  0  0  0  0  0  0
   -9.6925   -4.9747  -25.5408 C   0  0  0  0  0  0  0  0  0  0  0  0
   -9.8610   -6.2325  -26.3406 C   0  0  0  0  0  0  0  0  0  0  0  0
   -8.8399   -6.6066  -27.3738 C   0  0  0  0  0  0  0  0  0  0  0  0
   -7.6504   -5.7231  -27.6070 C   0  0  0  0  0  0  0  0  0  0  0  0
   -7.4820   -4.4654  -26.8072 C   0  0  0  0  0  0  0  0  0  0  0  0
  1  2  1  0  0  0
  2  3  1  0  0  0
  3 18  1  0  0  0
 18 19  1  0  0  0
 19 20  2  0  0  0
 20 21  1  0  0  0
 21 22  2  0  0  0
 22 23  1  0  0  0
 23 24  2  0  0  0
  3  4  2  0  0  0
  4  5  1  0  0  0
  5  8  1  0  0  0
  8  9  2  0  0  0
  9 10  1  0  0  0
 10 11  2  0  0  0
 11 12  1  0  0  0
 12 13  2  0  0  0
 13 14  1  0  0  0
 14 15  2  0  0  0
 15 16  1  0  0  0
 16 17  2  0  0  0
  5  6  1  0  0  0
  6  7  2  0  0  0
  6  2  1  0  0  0
 24 19  1  0  0  0
 17  8  1  0  0  0
 17 12  1  0  0  0
M  END
> <minimizedAffinity>
-7.13123

> <CNNscore>
0.6198102236

> <CNNaffinity>
5.4711599350

> <CNN_VS>
3.3910808563

> <CNNaffinity_variance>
0.2024045885

$$$$



 24 27  0  0  0  0  0  0  0  0999 V2000
   -8.7215   -2.4756  -22.2215 C   0  0  0  0  0  0  0  0  0  0  0  0
   -9.7860   -1.6346  -22.8614 N   0  0  0  0  0  0  0  0  0  0  0  0
  -10.8311   -2.1168  -23.8234 C   0  0  0  0  0  0  0  0  0  0  0  0
  -11.6833   -0.9439  -24.2082 N   0  0  0  0  0  0  0  0  0  0  0  0
  -11.1650    0.2631  -23.4840 N   0  0  0  0  0  0  0  0  0  0  0  0
   -9.9925   -0.1638  -22.6517 C   0  0  0  0  0  0  0  0  0  0  0  0
   -9.1706    0.7243  -21.7652 O   0  0  0  0  0  0  0  0  0  0  0  0
  -11.7216    1.6530  -23.5760 C   0  0  0  0  0  0  0  0  0  0  0  0
  -13.0305    1.9816  -22.9212 C   0  0  0  0  0  0  0  0  0  0  0  0
  -13.5870    3.3715  -23.0132 N   0  0  0  0  0  0  0  0  0  0  0  0
  -12.8348    4.4328  -23.7600 C   0  0  0  0  0  0  0  0  0  0  0  0
  -11.5258    4.1041  -24.4149 C   0  0  0  0  0  0  0  0  0  0  0  0
  -10.7736    5.1654  -25.1617 C   0  0  0  0  0  0  0  0  0  0  0  0
   -9.4647    4.8367  -25.8166 C   0  0  0  0  0  0  0  0  0  0  0  0
   -8.9081    3.4469  -25.7246 C   0  0  0  0  0  0  0  0  0  0  0  0
   -9.6604    2.3856  -24.9777 C   0  0  0  0  0  0  0  0  0  0  0  0
  -10.9693    2.7143  -24.3229 C   0  0  0  0  0  0  0  0  0  0  0  0
  -10.9950   -3.5246  -24.3145 C   0  0  0  0  0  0  0  0  0  0  0  0
  -10.0600   -4.0706  -25.3525 C   0  0  0  0  0  0  0  0  0  0  0  0
   -8.9000   -3.2455  -25.8252 C   0  0  0  0  0  0  0  0  0  0  0  0
   -7.9649   -3.7915  -26.8633 C   0  0  0  0  0  0  0  0  0  0  0  0
   -8.1898   -5.1625  -27.4285 C   0  0  0  0  0  0  0  0  0  0  0  0
   -9.3498   -5.9876  -26.9557 C   0  0  0  0  0  0  0  0  0  0  0  0
  -10.2849   -5.4416  -25.9177 C   0  0  0  0  0  0  0  0  0  0  0  0
  1  2  1  0  0  0
  2  3  1  0  0  0
  3 18  1  0  0  0
 18 19  1  0  0  0
 19 20  2  0  0  0
 20 21  1  0  0  0
 21 22  2  0  0  0
 22 23  1  0  0  0
 23 24  2  0  0  0
  3  4  2  0  0  0
  4  5  1  0  0  0
  5  8  1  0  0  0
  8  9  2  0  0  0
  9 10  1  0  0  0
 10 11  2  0  0  0
 11 12  1  0  0  0
 12 13  2  0  0  0
 13 14  1  0  0  0
 14 15  2  0  0  0
 15 16  1  0  0  0
 16 17  2  0  0  0
  5  6  1  0  0  0
  6  7  2  0  0  0
  6  2  1  0  0  0
 24 19  1  0  0  0
 17  8  1  0  0  0
 17 12  1  0  0  0
M  END
> <minimizedAffinity>
-6.52665

> <CNNscore>
0.5223159790

> <CNNaffinity>
5.2254362106

> <CNN_VS>
2.7293288708

> <CNNaffinity_variance>
0.2346981764

$$$$



 24 27  0  0  0  0  0  0  0  0999 V2000
   -6.3238   -3.3877  -24.6634 C   0  0  0  0  0  0  0  0  0  0  0  0
   -7.4160   -2.8492  -23.7875 N   0  0  0  0  0  0  0  0  0  0  0  0
   -7.3042   -2.5506  -22.3218 C   0  0  0  0  0  0  0  0  0  0  0  0
   -8.6309   -2.0316  -21.8520 N   0  0  0  0  0  0  0  0  0  0  0  0
   -9.5625   -2.0095  -23.0274 N   0  0  0  0  0  0  0  0  0  0  0  0
   -8.8117   -2.5147  -24.2236 C   0  0  0  0  0  0  0  0  0  0  0  0
   -9.3602   -2.6601  -25.6121 O   0  0  0  0  0  0  0  0  0  0  0  0
  -10.9938   -1.5608  -23.0096 C   0  0  0  0  0  0  0  0  0  0  0  0
  -12.0827   -2.5399  -22.6847 C   0  0  0  0  0  0  0  0  0  0  0  0
  -13.5139   -2.0912  -22.6670 N   0  0  0  0  0  0  0  0  0  0  0  0
  -13.8562   -0.6635  -22.9741 C   0  0  0  0  0  0  0  0  0  0  0  0
  -12.7672    0.3157  -23.2991 C   0  0  0  0  0  0  0  0  0  0  0  0
  -13.1095    1.7434  -23.6062 C   0  0  0  0  0  0  0  0  0  0  0  0
  -12.0206    2.7225  -23.9311 C   0  0  0  0  0  0  0  0  0  0  0  0
  -10.5894    2.2738  -23.9489 C   0  0  0  0  0  0  0  0  0  0  0  0
  -10.2471    0.8461  -23.6417 C   0  0  0  0  0  0  0  0  0  0  0  0
  -11.3360   -0.1330  -23.3168 C   0  0  0  0  0  0  0  0  0  0  0  0
   -6.0807   -2.7381  -21.4746 C   0  0  0  0  0  0  0  0  0  0  0  0
   -5.5612   -1.6013  -20.6454 C   0  0  0  0  0  0  0  0  0  0  0  0
   -4.6951   -0.5497  -21.2730 C   0  0  0  0  0  0  0  0  0  0  0  0
   -4.1756    0.5872  -20.4437 C   0  0  0  0  0  0  0  0  0  0  0  0
   -4.5223    0.6725  -18.9868 C   0  0  0  0  0  0  0  0  0  0  0  0
   -5.3884   -0.3791  -18.3592 C   0  0  0  0  0  0  0  0  0  0  0  0
   -5.9079   -1.5160  -19.1885 C   0  0  0  0  0  0  0  0  0  0  0  0
  1  2  1  0  0  0
  2  3  1  0  0  0
  3 18  1  0  0  0
 18 19  1  0  0  0
 19 20  2  0  0  0
 20 21  1  0  0  0
 21 22  2  0  0  0
 22 23  1  0  0  0
 23 24  2  0  0  0
  3  4  2  0  0  0
  4  5  1  0  0  0
  5  8  1  0  0  0
  8  9  2  0  0  0
  9 10  1  0  0  0
 10 11  2  0  0  0
 11 12  1  0  0  0
 12 13  2  0  0  0
 13 14  1  0  0  0
 14 15  2  0  0  0
 15 16  1  0  0  0
 16 17  2  0  0  0
  5  6  1  0  0  0
  6  7  2  0  0  0
  6  2  1  0  0  0
 24 19  1  0  0  0
 17  8  1  0  0  0
 17 12  1  0  0  0
M  END
> <minimizedAffinity>
-7.54377

> <CNNscore>
0.4806660712

> <CNNaffinity>
5.2568674088

> <CNN_VS>
2.5267977715

> <CNNaffinity_variance>
0.3045742810

$$$$



 24 27  0  0  0  0  0  0  0  0999 V2000
  -10.7218   -2.9100  -23.4770 C   0  0  0  0  0  0  0  0  0  0  0  0
  -10.5888   -1.4666  -23.0910 N   0  0  0  0  0  0  0  0  0  0  0  0
   -9.5324   -0.8865  -22.1980 C   0  0  0  0  0  0  0  0  0  0  0  0
   -9.7796    0.5887  -22.0854 N   0  0  0  0  0  0  0  0  0  0  0  0
  -10.9888    0.9203  -22.9088 N   0  0  0  0  0  0  0  0  0  0  0  0
  -11.4889   -0.3500  -23.5302 C   0  0  0  0  0  0  0  0  0  0  0  0
  -12.6800   -0.4807  -24.4326 O   0  0  0  0  0  0  0  0  0  0  0  0
  -11.5920    2.2829  -23.0805 C   0  0  0  0  0  0  0  0  0  0  0  0
  -12.8037    2.6722  -22.2868 C   0  0  0  0  0  0  0  0  0  0  0  0
  -13.4069    4.0348  -22.4585 N   0  0  0  0  0  0  0  0  0  0  0  0
  -12.7983    5.0081  -23.4239 C   0  0  0  0  0  0  0  0  0  0  0  0
  -11.5864    4.6189  -24.2177 C   0  0  0  0  0  0  0  0  0  0  0  0
  -10.9778    5.5923  -25.1831 C   0  0  0  0  0  0  0  0  0  0  0  0
   -9.7660    5.2031  -25.9768 C   0  0  0  0  0  0  0  0  0  0  0  0
   -9.1628    3.8404  -25.8051 C   0  0  0  0  0  0  0  0  0  0  0  0
   -9.7715    2.8671  -24.8397 C   0  0  0  0  0  0  0  0  0  0  0  0
  -10.9833    3.2563  -24.0460 C   0  0  0  0  0  0  0  0  0  0  0  0
   -8.4235   -1.6478  -21.5342 C   0  0  0  0  0  0  0  0  0  0  0  0
   -7.2900   -0.9095  -20.8862 C   0  0  0  0  0  0  0  0  0  0  0  0
   -6.4159   -0.0078  -21.7064 C   0  0  0  0  0  0  0  0  0  0  0  0
   -5.2824    0.7306  -21.0583 C   0  0  0  0  0  0  0  0  0  0  0  0
   -5.0230    0.5673  -19.5900 C   0  0  0  0  0  0  0  0  0  0  0  0
   -5.8972   -0.3344  -18.7697 C   0  0  0  0  0  0  0  0  0  0  0  0
   -7.0307   -1.0728  -19.4178 C   0  0  0  0  0  0  0  0  0  0  0  0
  1  2  1  0  0  0
  2  3  1  0  0  0
  3 18  1  0  0  0
 18 19  1  0  0  0
 19 20  2  0  0  0
 20 21  1  0  0  0
 21 22  2  0  0  0
 22 23  1  0  0  0
 23 24  2  0  0  0
  3  4  2  0  0  0
  4  5  1  0  0  0
  5  8  1  0  0  0
  8  9  2  0  0  0
  9 10  1  0  0  0
 10 11  2  0  0  0
 11 12  1  0  0  0
 12 13  2  0  0  0
 13 14  1  0  0  0
 14 15  2  0  0  0
 15 16  1  0  0  0
 16 17  2  0  0  0
  5  6  1  0  0  0
  6  7  2  0  0  0
  6  2  1  0  0  0
 24 19  1  0  0  0
 17  8  1  0  0  0
 17 12  1  0  0  0
M  END
> <minimizedAffinity>
-7.15843

> <CNNscore>
0.4669242203

> <CNNaffinity>
5.2311239243

> <CNN_VS>
2.4425384998

> <CNNaffinity_variance>
0.1820268631

$$$$



 24 27  0  0  0  0  0  0  0  0999 V2000
   -9.1904   -3.0874  -22.8270 C   0  0  0  0  0  0  0  0  0  0  0  0
   -9.4986   -1.6297  -22.6533 N   0  0  0  0  0  0  0  0  0  0  0  0
   -8.8203   -0.6928  -21.6982 C   0  0  0  0  0  0  0  0  0  0  0  0
   -9.4417    0.6630  -21.8589 N   0  0  0  0  0  0  0  0  0  0  0  0
  -10.5040    0.5640  -22.9133 N   0  0  0  0  0  0  0  0  0  0  0  0
  -10.5392   -0.8529  -23.4042 C   0  0  0  0  0  0  0  0  0  0  0  0
  -11.4542   -1.3975  -24.4607 O   0  0  0  0  0  0  0  0  0  0  0  0
  -11.3778    1.6851  -23.3925 C   0  0  0  0  0  0  0  0  0  0  0  0
  -12.8224    1.7341  -22.9917 C   0  0  0  0  0  0  0  0  0  0  0  0
  -13.6961    2.8552  -23.4709 N   0  0  0  0  0  0  0  0  0  0  0  0
  -13.1253    3.9273  -24.3510 C   0  0  0  0  0  0  0  0  0  0  0  0
  -11.6806    3.8784  -24.7519 C   0  0  0  0  0  0  0  0  0  0  0  0
  -11.1098    4.9506  -25.6319 C   0  0  0  0  0  0  0  0  0  0  0  0
   -9.6652    4.9017  -26.0327 C   0  0  0  0  0  0  0  0  0  0  0  0
   -8.7914    3.7805  -25.5535 C   0  0  0  0  0  0  0  0  0  0  0  0
   -9.3623    2.7084  -24.6734 C   0  0  0  0  0  0  0  0  0  0  0  0
  -10.8069    2.7573  -24.2726 C   0  0  0  0  0  0  0  0  0  0  0  0
   -7.7148   -1.0491  -20.7491 C   0  0  0  0  0  0  0  0  0  0  0  0
   -6.5199   -0.1517  -20.6188 C   0  0  0  0  0  0  0  0  0  0  0  0
   -6.2054    0.8400  -21.6992 C   0  0  0  0  0  0  0  0  0  0  0  0
   -5.0105    1.7374  -21.5689 C   0  0  0  0  0  0  0  0  0  0  0  0
   -4.1301    1.6430  -20.3581 C   0  0  0  0  0  0  0  0  0  0  0  0
   -4.4447    0.6512  -19.2776 C   0  0  0  0  0  0  0  0  0  0  0  0
   -5.6396   -0.2462  -19.4080 C   0  0  0  0  0  0  0  0  0  0  0  0
  1  2  1  0  0  0
  2  3  1  0  0  0
  3 18  1  0  0  0
 18 19  1  0  0  0
 19 20  2  0  0  0
 20 21  1  0  0  0
 21 22  2  0  0  0
 22 23  1  0  0  0
 23 24  2  0  0  0
  3  4  2  0  0  0
  4  5  1  0  0  0
  5  8  1  0  0  0
  8  9  2  0  0  0
  9 10  1  0  0  0
 10 11  2  0  0  0
 11 12  1  0  0  0
 12 13  2  0  0  0
 13 14  1  0  0  0
 14 15  2  0  0  0
 15 16  1  0  0  0
 16 17  2  0  0  0
  5  6  1  0  0  0
  6  7  2  0  0  0
  6  2  1  0  0  0
 24 19  1  0  0  0
 17  8  1  0  0  0
 17 12  1  0  0  0
M  END
> <minimizedAffinity>
-7.29720

> <CNNscore>
0.4260188639

> <CNNaffinity>
5.1814341545

> <CNN_VS>
2.2073886395

> <CNNaffinity_variance>
0.2805522084

$$$$



 24 27  0  0  0  0  0  0  0  0999 V2000
   -9.5330   -3.3871  -23.8225 C   0  0  0  0  0  0  0  0  0  0  0  0
   -8.3298   -3.2051  -22.9455 N   0  0  0  0  0  0  0  0  0  0  0  0
   -7.1662   -4.1457  -22.8386 C   0  0  0  0  0  0  0  0  0  0  0  0
   -6.1962   -3.5724  -21.8485 N   0  0  0  0  0  0  0  0  0  0  0  0
   -6.7602   -2.2775  -21.3434 N   0  0  0  0  0  0  0  0  0  0  0  0
   -8.0788   -2.0505  -22.0214 C   0  0  0  0  0  0  0  0  0  0  0  0
   -8.9871   -0.8752  -21.8121 O   0  0  0  0  0  0  0  0  0  0  0  0
   -6.1183   -1.3691  -20.3371 C   0  0  0  0  0  0  0  0  0  0  0  0
   -6.5857   -1.3793  -18.9118 C   0  0  0  0  0  0  0  0  0  0  0  0
   -5.9438   -0.4709  -17.9055 N   0  0  0  0  0  0  0  0  0  0  0  0
   -4.8345    0.4478  -18.3244 C   0  0  0  0  0  0  0  0  0  0  0  0
   -4.3670    0.4580  -19.7497 C   0  0  0  0  0  0  0  0  0  0  0  0
   -3.2578    1.3767  -20.1686 C   0  0  0  0  0  0  0  0  0  0  0  0
   -2.7904    1.3869  -21.5939 C   0  0  0  0  0  0  0  0  0  0  0  0
   -3.4323    0.4785  -22.6002 C   0  0  0  0  0  0  0  0  0  0  0  0
   -4.5416   -0.4402  -22.1813 C   0  0  0  0  0  0  0  0  0  0  0  0
   -5.0089   -0.4504  -20.7560 C   0  0  0  0  0  0  0  0  0  0  0  0
   -7.0016   -5.4335  -23.5899 C   0  0  0  0  0  0  0  0  0  0  0  0
   -5.6365   -5.8806  -24.0218 C   0  0  0  0  0  0  0  0  0  0  0  0
   -5.1311   -5.5316  -25.3902 C   0  0  0  0  0  0  0  0  0  0  0  0
   -3.7659   -5.9787  -25.8222 C   0  0  0  0  0  0  0  0  0  0  0  0
   -2.9063   -6.7748  -24.8856 C   0  0  0  0  0  0  0  0  0  0  0  0
   -3.4117   -7.1238  -23.5172 C   0  0  0  0  0  0  0  0  0  0  0  0
   -4.7769   -6.6767  -23.0853 C   0  0  0  0  0  0  0  0  0  0  0  0
  1  2  1  0  0  0
  2  3  1  0  0  0
  3 18  1  0  0  0
 18 19  1  0  0  0
 19 20  2  0  0  0
 20 21  1  0  0  0
 21 22  2  0  0  0
 22 23  1  0  0  0
 23 24  2  0  0  0
  3  4  2  0  0  0
  4  5  1  0  0  0
  5  8  1  0  0  0
  8  9  2  0  0  0
  9 10  1  0  0  0
 10 11  2  0  0  0
 11 12  1  0  0  0
 12 13  2  0  0  0
 13 14  1  0  0  0
 14 15  2  0  0  0
 15 16  1  0  0  0
 16 17  2  0  0  0
  5  6  1  0  0  0
  6  7  2  0  0  0
  6  2  1  0  0  0
 24 19  1  0  0  0
 17  8  1  0  0  0
 17 12  1  0  0  0
M  END
> <minimizedAffinity>
-6.92527

> <CNNscore>
0.3958198726

> <CNNaffinity>
5.1836481094

> <CNN_VS>
2.0517909527

> <CNNaffinity_variance>
0.0953777507

$$$$



 24 27  0  0  0  0  0  0  0  0999 V2000
   -4.7554    0.5944  -18.5153 C   0  0  0  0  0  0  0  0  0  0  0  0
   -5.4534    0.3360  -19.8177 N   0  0  0  0  0  0  0  0  0  0  0  0
   -5.2125    1.0642  -21.1068 C   0  0  0  0  0  0  0  0  0  0  0  0
   -6.1250    0.4822  -22.1453 N   0  0  0  0  0  0  0  0  0  0  0  0
   -6.9298   -0.6056  -21.4982 N   0  0  0  0  0  0  0  0  0  0  0  0
   -6.5148   -0.6959  -20.0596 C   0  0  0  0  0  0  0  0  0  0  0  0
   -7.0645   -1.6506  -19.0416 O   0  0  0  0  0  0  0  0  0  0  0  0
   -7.9676   -1.4540  -22.1714 C   0  0  0  0  0  0  0  0  0  0  0  0
   -7.7077   -2.9128  -22.4045 C   0  0  0  0  0  0  0  0  0  0  0  0
   -8.7454   -3.7613  -23.0777 N   0  0  0  0  0  0  0  0  0  0  0  0
  -10.0431   -3.1510  -23.5177 C   0  0  0  0  0  0  0  0  0  0  0  0
  -10.3030   -1.6921  -23.2846 C   0  0  0  0  0  0  0  0  0  0  0  0
  -11.6007   -1.0819  -23.7246 C   0  0  0  0  0  0  0  0  0  0  0  0
  -11.8605    0.3769  -23.4914 C   0  0  0  0  0  0  0  0  0  0  0  0
  -10.8228    1.2254  -22.8182 C   0  0  0  0  0  0  0  0  0  0  0  0
   -9.5252    0.6151  -22.3782 C   0  0  0  0  0  0  0  0  0  0  0  0
   -9.2653   -0.8437  -22.6114 C   0  0  0  0  0  0  0  0  0  0  0  0
   -4.2313    2.1786  -21.3199 C   0  0  0  0  0  0  0  0  0  0  0  0
   -2.7674    1.8758  -21.4421 C   0  0  0  0  0  0  0  0  0  0  0  0
   -1.8795    1.9667  -20.2365 C   0  0  0  0  0  0  0  0  0  0  0  0
   -0.4155    1.6639  -20.3587 C   0  0  0  0  0  0  0  0  0  0  0  0
    0.1607    1.2702  -21.6864 C   0  0  0  0  0  0  0  0  0  0  0  0
   -0.7271    1.1794  -22.8920 C   0  0  0  0  0  0  0  0  0  0  0  0
   -2.1912    1.4822  -22.7698 C   0  0  0  0  0  0  0  0  0  0  0  0
  1  2  1  0  0  0
  2  3  1  0  0  0
  3 18  1  0  0  0
 18 19  1  0  0  0
 19 20  2  0  0  0
 20 21  1  0  0  0
 21 22  2  0  0  0
 22 23  1  0  0  0
 23 24  2  0  0  0
  3  4  2  0  0  0
  4  5  1  0  0  0
  5  8  1  0  0  0
  8  9  2  0  0  0
  9 10  1  0  0  0
 10 11  2  0  0  0
 11 12  1  0  0  0
 12 13  2  0  0  0
 13 14  1  0  0  0
 14 15  2  0  0  0
 15 16  1  0  0  0
 16 17  2  0  0  0
  5  6  1  0  0  0
  6  7  2  0  0  0
  6  2  1  0  0  0
 24 19  1  0  0  0
 17  8  1  0  0  0
 17 12  1  0  0  0
M  END
> <minimizedAffinity>
-6.46016

> <CNNscore>
0.3937344253

> <CNNaffinity>
5.1280264854

> <CNN_VS>
2.0190806389

> <CNNaffinity_variance>
0.1653284431

$$$$
