


 24 27  0  0  0  0  0  0  0  0999 V2000
    6.7735   -3.3928   24.3188 C   0  0  0  0  0  0  0  0  0  0  0  0
    6.7942   -2.1696   23.4508 N   0  0  0  0  0  0  0  0  0  0  0  0
    7.5249   -0.8928   23.7438 C   0  0  0  0  0  0  0  0  0  0  0  0
    7.2700    0.0574   22.6114 N   0  0  0  0  0  0  0  0  0  0  0  0
    6.3819   -0.6322   21.6186 N   0  0  0  0  0  0  0  0  0  0  0  0
    6.0878   -2.0085   22.1374 C   0  0  0  0  0  0  0  0  0  0  0  0
    5.2368   -3.0423   21.4614 O   0  0  0  0  0  0  0  0  0  0  0  0
    5.8766   -0.0479   20.3328 C   0  0  0  0  0  0  0  0  0  0  0  0
    6.6119   -0.3068   19.0513 C   0  0  0  0  0  0  0  0  0  0  0  0
    6.1066    0.2774   17.7654 N   0  0  0  0  0  0  0  0  0  0  0  0
    4.8660    1.1205   17.7611 C   0  0  0  0  0  0  0  0  0  0  0  0
    4.1306    1.3794   19.0427 C   0  0  0  0  0  0  0  0  0  0  0  0
    2.8900    2.2225   19.0384 C   0  0  0  0  0  0  0  0  0  0  0  0
    2.1547    2.4813   20.3199 C   0  0  0  0  0  0  0  0  0  0  0  0
    2.6600    1.8971   21.6057 C   0  0  0  0  0  0  0  0  0  0  0  0
    3.9006    1.0540   21.6100 C   0  0  0  0  0  0  0  0  0  0  0  0
    4.6359    0.7952   20.3285 C   0  0  0  0  0  0  0  0  0  0  0  0
    8.3631   -0.6149   24.9563 C   0  0  0  0  0  0  0  0  0  0  0  0
    9.8494   -0.8093   24.9011 C   0  0  0  0  0  0  0  0  0  0  0  0
   10.5141   -1.7788   25.8328 C   0  0  0  0  0  0  0  0  0  0  0  0
   12.0005   -1.9732   25.7776 C   0  0  0  0  0  0  0  0  0  0  0  0
   12.8221   -1.1981   24.7907 C   0  0  0  0  0  0  0  0  0  0  0  0
   12.1573   -0.2286   23.8589 C   0  0  0  0  0  0  0  0  0  0  0  0
   10.6710   -0.0342   23.9141 C   0  0  0  0  0  0  0  0  0  0  0  0
  1  2  1  0  0  0
  2  3  1  0  0  0
  3 18  1  0  0  0
 18 19  1  0  0  0
 19 20  2  0  0  0
 20 21  1  0  0  0
 21 22  2  0  0  0
 22 23  1  0  0  0
 23 24  2  0  0  0
  3  4  2  0  0  0
  4  5  1  0  0  0
  5  8  1  0  0  0
  8  9  2  0  0  0
  9 10  1  0  0  0
 10 11  2  0  0  0
 11 12  1  0  0  0
 12 13  2  0  0  0
 13 14  1  0  0  0
 14 15  2  0  0  0
 15 16  1  0  0  0
 16 17  2  0  0  0
  5  6  1  0  0  0
  6  7  2  0  0  0
  6  2  1  0  0  0
 24 19  1  0  0  0
 17  8  1  0  0  0
 17 12  1  0  0  0
M  END
> <minimizedAffinity>
-7.87576

> <CNNscore>
0.6998383403

> <CNNaffinity>
5.7687921524

> <CNN_VS>
4.0372219086

> <CNNaffinity_variance>
0.1165449396

$$$$



 24 27  0  0  0  0  0  0  0  0999 V2000
    6.7682   -3.3988   24.3289 C   0  0  0  0  0  0  0  0  0  0  0  0
    6.7904   -2.1763   23.4601 N   0  0  0  0  0  0  0  0  0  0  0  0
    7.5225   -0.9001   23.7523 C   0  0  0  0  0  0  0  0  0  0  0  0
    7.2689    0.0496   22.6192 N   0  0  0  0  0  0  0  0  0  0  0  0
    6.3800   -0.6396   21.6268 N   0  0  0  0  0  0  0  0  0  0  0  0
    6.0843   -2.0152   22.1465 C   0  0  0  0  0  0  0  0  0  0  0  0
    5.2320   -3.0485   21.4712 O   0  0  0  0  0  0  0  0  0  0  0  0
    5.8754   -0.0556   20.3406 C   0  0  0  0  0  0  0  0  0  0  0  0
    6.6099   -0.3170   19.0591 C   0  0  0  0  0  0  0  0  0  0  0  0
    6.1054    0.2670   17.7729 N   0  0  0  0  0  0  0  0  0  0  0  0
    4.8663    1.1123   17.7681 C   0  0  0  0  0  0  0  0  0  0  0  0
    4.1317    1.3737   19.0496 C   0  0  0  0  0  0  0  0  0  0  0  0
    2.8927    2.2191   19.0448 C   0  0  0  0  0  0  0  0  0  0  0  0
    2.1582    2.4805   20.3262 C   0  0  0  0  0  0  0  0  0  0  0  0
    2.6628    1.8965   21.6124 C   0  0  0  0  0  0  0  0  0  0  0  0
    3.9018    1.0512   21.6173 C   0  0  0  0  0  0  0  0  0  0  0  0
    4.6363    0.7898   20.3358 C   0  0  0  0  0  0  0  0  0  0  0  0
    8.3611   -0.6224   24.9646 C   0  0  0  0  0  0  0  0  0  0  0  0
    9.8480   -0.8103   24.9070 C   0  0  0  0  0  0  0  0  0  0  0  0
   10.6667   -0.0196   23.9300 C   0  0  0  0  0  0  0  0  0  0  0  0
   12.1538   -0.2076   23.8725 C   0  0  0  0  0  0  0  0  0  0  0  0
   12.8222   -1.1863   24.7919 C   0  0  0  0  0  0  0  0  0  0  0  0
   12.0035   -1.9770   25.7689 C   0  0  0  0  0  0  0  0  0  0  0  0
   10.5165   -1.7890   25.8265 C   0  0  0  0  0  0  0  0  0  0  0  0
  1  2  1  0  0  0
  2  3  1  0  0  0
  3 18  1  0  0  0
 18 19  1  0  0  0
 19 20  2  0  0  0
 20 21  1  0  0  0
 21 22  2  0  0  0
 22 23  1  0  0  0
 23 24  2  0  0  0
  3  4  2  0  0  0
  4  5  1  0  0  0
  5  8  1  0  0  0
  8  9  2  0  0  0
  9 10  1  0  0  0
 10 11  2  0  0  0
 11 12  1  0  0  0
 12 13  2  0  0  0
 13 14  1  0  0  0
 14 15  2  0  0  0
 15 16  1  0  0  0
 16 17  2  0  0  0
  5  6  1  0  0  0
  6  7  2  0  0  0
  6  2  1  0  0  0
 24 19  1  0  0  0
 17  8  1  0  0  0
 17 12  1  0  0  0
M  END
> <minimizedAffinity>
-7.86506

> <CNNscore>
0.6992334723

> <CNNaffinity>
5.7665414810

> <CNN_VS>
4.0321588516

> <CNNaffinity_variance>
0.1157150269

$$$$



 24 27  0  0  0  0  0  0  0  0999 V2000
   10.3887    1.0485   23.6632 C   0  0  0  0  0  0  0  0  0  0  0  0
    9.2923    0.4285   22.8486 N   0  0  0  0  0  0  0  0  0  0  0  0
    8.7686   -0.9695   22.9940 C   0  0  0  0  0  0  0  0  0  0  0  0
    7.6797   -1.1643   21.9808 N   0  0  0  0  0  0  0  0  0  0  0  0
    7.5305    0.1134   21.2093 N   0  0  0  0  0  0  0  0  0  0  0  0
    8.5271    1.0978   21.7456 C   0  0  0  0  0  0  0  0  0  0  0  0
    8.7240    2.5045   21.2636 O   0  0  0  0  0  0  0  0  0  0  0  0
    6.5558    0.3628   20.0968 C   0  0  0  0  0  0  0  0  0  0  0  0
    6.7202   -0.3427   18.7833 C   0  0  0  0  0  0  0  0  0  0  0  0
    5.7454   -0.0932   17.6708 N   0  0  0  0  0  0  0  0  0  0  0  0
    4.6063    0.8617   17.8717 C   0  0  0  0  0  0  0  0  0  0  0  0
    4.4419    1.5673   19.1852 C   0  0  0  0  0  0  0  0  0  0  0  0
    3.3028    2.5223   19.3861 C   0  0  0  0  0  0  0  0  0  0  0  0
    3.1384    3.2278   20.6996 C   0  0  0  0  0  0  0  0  0  0  0  0
    4.1131    2.9783   21.8121 C   0  0  0  0  0  0  0  0  0  0  0  0
    5.2522    2.0234   21.6112 C   0  0  0  0  0  0  0  0  0  0  0  0
    5.4166    1.3179   20.2977 C   0  0  0  0  0  0  0  0  0  0  0  0
    9.2493   -1.9931   23.9795 C   0  0  0  0  0  0  0  0  0  0  0  0
   10.6818   -1.9913   24.4241 C   0  0  0  0  0  0  0  0  0  0  0  0
   11.7831   -1.9833   23.4059 C   0  0  0  0  0  0  0  0  0  0  0  0
   13.2157   -1.9814   23.8506 C   0  0  0  0  0  0  0  0  0  0  0  0
   13.5469   -1.9877   25.3135 C   0  0  0  0  0  0  0  0  0  0  0  0
   12.4455   -1.9958   26.3318 C   0  0  0  0  0  0  0  0  0  0  0  0
   11.0129   -1.9976   25.8871 C   0  0  0  0  0  0  0  0  0  0  0  0
  1  2  1  0  0  0
  2  3  1  0  0  0
  3 18  1  0  0  0
 18 19  1  0  0  0
 19 20  2  0  0  0
 20 21  1  0  0  0
 21 22  2  0  0  0
 22 23  1  0  0  0
 23 24  2  0  0  0
  3  4  2  0  0  0
  4  5  1  0  0  0
  5  8  1  0  0  0
  8  9  2  0  0  0
  9 10  1  0  0  0
 10 11  2  0  0  0
 11 12  1  0  0  0
 12 13  2  0  0  0
 13 14  1  0  0  0
 14 15  2  0  0  0
 15 16  1  0  0  0
 16 17  2  0  0  0
  5  6  1  0  0  0
  6  7  2  0  0  0
  6  2  1  0  0  0
 24 19  1  0  0  0
 17  8  1  0  0  0
 17 12  1  0  0  0
M  END
> <minimizedAffinity>
-7.71678

> <CNNscore>
0.6367213130

> <CNNaffinity>
5.8164725304

> <CNN_VS>
3.7034721375

> <CNNaffinity_variance>
0.3112776577

$$$$



 24 27  0  0  0  0  0  0  0  0999 V2000
    7.6280   -0.2108   25.4095 C   0  0  0  0  0  0  0  0  0  0  0  0
    7.7064    0.1102   23.9463 N   0  0  0  0  0  0  0  0  0  0  0  0
    8.9218    0.5971   23.2144 C   0  0  0  0  0  0  0  0  0  0  0  0
    8.5497    0.7884   21.7739 N   0  0  0  0  0  0  0  0  0  0  0  0
    7.1044    0.4197   21.6155 N   0  0  0  0  0  0  0  0  0  0  0  0
    6.5832    0.0005   22.9582 C   0  0  0  0  0  0  0  0  0  0  0  0
    5.1844   -0.4494   23.2598 O   0  0  0  0  0  0  0  0  0  0  0  0
    6.3183    0.4626   20.3388 C   0  0  0  0  0  0  0  0  0  0  0  0
    6.6885   -0.4400   19.1994 C   0  0  0  0  0  0  0  0  0  0  0  0
    5.9024   -0.3971   17.9226 N   0  0  0  0  0  0  0  0  0  0  0  0
    4.7461    0.5483   17.7852 C   0  0  0  0  0  0  0  0  0  0  0  0
    4.3758    1.4510   18.9246 C   0  0  0  0  0  0  0  0  0  0  0  0
    3.2195    2.3965   18.7872 C   0  0  0  0  0  0  0  0  0  0  0  0
    2.8493    3.2991   19.9265 C   0  0  0  0  0  0  0  0  0  0  0  0
    3.6354    3.2562   21.2033 C   0  0  0  0  0  0  0  0  0  0  0  0
    4.7917    2.3107   21.3407 C   0  0  0  0  0  0  0  0  0  0  0  0
    5.1619    1.4081   20.2014 C   0  0  0  0  0  0  0  0  0  0  0  0
   10.2722    0.8487   23.8171 C   0  0  0  0  0  0  0  0  0  0  0  0
   11.0618   -0.2907   24.3899 C   0  0  0  0  0  0  0  0  0  0  0  0
   12.5011   -0.4722   24.0085 C   0  0  0  0  0  0  0  0  0  0  0  0
   13.2908   -1.6116   24.5813 C   0  0  0  0  0  0  0  0  0  0  0  0
   12.6413   -2.5695   25.5355 C   0  0  0  0  0  0  0  0  0  0  0  0
   11.2020   -2.3880   25.9169 C   0  0  0  0  0  0  0  0  0  0  0  0
   10.4123   -1.2485   25.3441 C   0  0  0  0  0  0  0  0  0  0  0  0
  1  2  1  0  0  0
  2  3  1  0  0  0
  3 18  1  0  0  0
 18 19  1  0  0  0
 19 20  2  0  0  0
 20 21  1  0  0  0
 21 22  2  0  0  0
 22 23  1  0  0  0
 23 24  2  0  0  0
  3  4  2  0  0  0
  4  5  1  0  0  0
  5  8  1  0  0  0
  8  9  2  0  0  0
  9 10  1  0  0  0
 10 11  2  0  0  0
 11 12  1  0  0  0
 12 13  2  0  0  0
 13 14  1  0  0  0
 14 15  2  0  0  0
 15 16  1  0  0  0
 16 17  2  0  0  0
  5  6  1  0  0  0
  6  7  2  0  0  0
  6  2  1  0  0  0
 24 19  1  0  0  0
 17  8  1  0  0  0
 17 12  1  0  0  0
M  END
> <minimizedAffinity>
-7.51253

> <CNNscore>
0.5639993548

> <CNNaffinity>
5.6625156403

> <CNN_VS>
3.1936552525

> <CNNaffinity_variance>
0.1229049340

$$$$



 24 27  0  0  0  0  0  0  0  0999 V2000
    7.4275   -1.1929   21.5904 C   0  0  0  0  0  0  0  0  0  0  0  0
    8.4930   -0.2933   22.1430 N   0  0  0  0  0  0  0  0  0  0  0  0
    9.5754   -0.6938   23.1012 C   0  0  0  0  0  0  0  0  0  0  0  0
   10.4145    0.5168   23.3849 N   0  0  0  0  0  0  0  0  0  0  0  0
    9.8507    1.6654   22.6021 N   0  0  0  0  0  0  0  0  0  0  0  0
    8.6632    1.1647   21.8346 C   0  0  0  0  0  0  0  0  0  0  0  0
    7.7977    1.9791   20.9193 O   0  0  0  0  0  0  0  0  0  0  0  0
   10.3814    3.0684   22.5891 C   0  0  0  0  0  0  0  0  0  0  0  0
   11.7712    3.3400   22.0948 C   0  0  0  0  0  0  0  0  0  0  0  0
   12.3019    4.7429   22.0817 N   0  0  0  0  0  0  0  0  0  0  0  0
   11.4426    5.8743   22.5630 C   0  0  0  0  0  0  0  0  0  0  0  0
   10.0526    5.6027   23.0574 C   0  0  0  0  0  0  0  0  0  0  0  0
    9.1934    6.7340   23.5387 C   0  0  0  0  0  0  0  0  0  0  0  0
    7.8035    6.4624   24.0330 C   0  0  0  0  0  0  0  0  0  0  0  0
    7.2729    5.0594   24.0460 C   0  0  0  0  0  0  0  0  0  0  0  0
    8.1321    3.9281   23.5647 C   0  0  0  0  0  0  0  0  0  0  0  0
    9.5220    4.1997   23.0704 C   0  0  0  0  0  0  0  0  0  0  0  0
    9.7823   -2.0642   23.6749 C   0  0  0  0  0  0  0  0  0  0  0  0
   10.9667   -2.3384   24.5535 C   0  0  0  0  0  0  0  0  0  0  0  0
   10.8011   -3.1508   25.8035 C   0  0  0  0  0  0  0  0  0  0  0  0
   11.9856   -3.4251   26.6821 C   0  0  0  0  0  0  0  0  0  0  0  0
   13.3355   -2.8869   26.3107 C   0  0  0  0  0  0  0  0  0  0  0  0
   13.5011   -2.0745   25.0607 C   0  0  0  0  0  0  0  0  0  0  0  0
   12.3166   -1.8003   24.1820 C   0  0  0  0  0  0  0  0  0  0  0  0
  1  2  1  0  0  0
  2  3  1  0  0  0
  3 18  1  0  0  0
 18 19  1  0  0  0
 19 20  2  0  0  0
 20 21  1  0  0  0
 21 22  2  0  0  0
 22 23  1  0  0  0
 23 24  2  0  0  0
  3  4  2  0  0  0
  4  5  1  0  0  0
  5  8  1  0  0  0
  8  9  2  0  0  0
  9 10  1  0  0  0
 10 11  2  0  0  0
 11 12  1  0  0  0
 12 13  2  0  0  0
 13 14  1  0  0  0
 14 15  2  0  0  0
 15 16  1  0  0  0
 16 17  2  0  0  0
  5  6  1  0  0  0
  6  7  2  0  0  0
  6  2  1  0  0  0
 24 19  1  0  0  0
 17  8  1  0  0  0
 17 12  1  0  0  0
M  END
> <minimizedAffinity>
-7.05386

> <CNNscore>
0.5547078252

> <CNNaffinity>
5.8882346153

> <CNN_VS>
3.2662498951

> <CNNaffinity_variance>
0.4734891951

$$$$



 24 27  0  0  0  0  0  0  0  0999 V2000
    5.3747   -2.6387   21.8122 C   0  0  0  0  0  0  0  0  0  0  0  0
    6.7059   -2.8020   22.4839 N   0  0  0  0  0  0  0  0  0  0  0  0
    7.0673   -3.8655   23.4781 C   0  0  0  0  0  0  0  0  0  0  0  0
    8.4942   -3.6512   23.8879 N   0  0  0  0  0  0  0  0  0  0  0  0
    9.0147   -2.4553   23.1471 N   0  0  0  0  0  0  0  0  0  0  0  0
    7.9095   -1.9305   22.2794 C   0  0  0  0  0  0  0  0  0  0  0  0
    7.9931   -0.7426   21.3672 O   0  0  0  0  0  0  0  0  0  0  0  0
   10.3977   -1.8845   23.2551 C   0  0  0  0  0  0  0  0  0  0  0  0
   10.8903   -0.9123   22.2245 C   0  0  0  0  0  0  0  0  0  0  0  0
   12.2732   -0.3414   22.3325 N   0  0  0  0  0  0  0  0  0  0  0  0
   13.1635   -0.7427   23.4710 C   0  0  0  0  0  0  0  0  0  0  0  0
   12.6709   -1.7150   24.5016 C   0  0  0  0  0  0  0  0  0  0  0  0
   13.5612   -2.1163   25.6402 C   0  0  0  0  0  0  0  0  0  0  0  0
   13.0685   -3.0885   26.6707 C   0  0  0  0  0  0  0  0  0  0  0  0
   11.6856   -3.6594   26.5628 C   0  0  0  0  0  0  0  0  0  0  0  0
   10.7953   -3.2580   25.4242 C   0  0  0  0  0  0  0  0  0  0  0  0
   11.2880   -2.2858   24.3937 C   0  0  0  0  0  0  0  0  0  0  0  0
    6.1610   -4.9525   23.9751 C   0  0  0  0  0  0  0  0  0  0  0  0
    5.5904   -4.8783   25.3603 C   0  0  0  0  0  0  0  0  0  0  0  0
    4.7016   -5.9761   25.8651 C   0  0  0  0  0  0  0  0  0  0  0  0
    4.1310   -5.9019   27.2504 C   0  0  0  0  0  0  0  0  0  0  0  0
    4.4492   -4.7299   28.1308 C   0  0  0  0  0  0  0  0  0  0  0  0
    5.3380   -3.6321   27.6260 C   0  0  0  0  0  0  0  0  0  0  0  0
    5.9086   -3.7063   26.2407 C   0  0  0  0  0  0  0  0  0  0  0  0
  1  2  1  0  0  0
  2  3  1  0  0  0
  3 18  1  0  0  0
 18 19  1  0  0  0
 19 20  2  0  0  0
 20 21  1  0  0  0
 21 22  2  0  0  0
 22 23  1  0  0  0
 23 24  2  0  0  0
  3  4  2  0  0  0
  4  5  1  0  0  0
  5  8  1  0  0  0
  8  9  2  0  0  0
  9 10  1  0  0  0
 10 11  2  0  0  0
 11 12  1  0  0  0
 12 13  2  0  0  0
 13 14  1  0  0  0
 14 15  2  0  0  0
 15 16  1  0  0  0
 16 17  2  0  0  0
  5  6  1  0  0  0
  6  7  2  0  0  0
  6  2  1  0  0  0
 24 19  1  0  0  0
 17  8  1  0  0  0
 17 12  1  0  0  0
M  END
> <minimizedAffinity>
-6.82631

> <CNNscore>
0.5519313812

> <CNNaffinity>
5.7814536095

> <CNN_VS>
3.1909656525

> <CNNaffinity_variance>
0.1569894850

$$$$



 24 27  0  0  0  0  0  0  0  0999 V2000
    5.4359   -2.2295   21.9119 C   0  0  0  0  0  0  0  0  0  0  0  0
    6.4274   -2.9971   22.7351 N   0  0  0  0  0  0  0  0  0  0  0  0
    6.3805   -4.4677   23.0269 C   0  0  0  0  0  0  0  0  0  0  0  0
    7.5640   -4.8083   23.8832 N   0  0  0  0  0  0  0  0  0  0  0  0
    8.3423   -3.5483   24.1207 N   0  0  0  0  0  0  0  0  0  0  0  0
    7.6398   -2.4289   23.4111 C   0  0  0  0  0  0  0  0  0  0  0  0
    8.0737   -0.9933   23.3826 O   0  0  0  0  0  0  0  0  0  0  0  0
    9.6019   -3.4286   24.9263 C   0  0  0  0  0  0  0  0  0  0  0  0
    9.6928   -4.0751   26.2768 C   0  0  0  0  0  0  0  0  0  0  0  0
   10.9524   -3.9554   27.0824 N   0  0  0  0  0  0  0  0  0  0  0  0
   12.1212   -3.1893   26.5376 C   0  0  0  0  0  0  0  0  0  0  0  0
   12.0304   -2.5428   25.1871 C   0  0  0  0  0  0  0  0  0  0  0  0
   13.1992   -1.7766   24.6422 C   0  0  0  0  0  0  0  0  0  0  0  0
   13.1084   -1.1302   23.2918 C   0  0  0  0  0  0  0  0  0  0  0  0
   11.8488   -1.2498   22.4861 C   0  0  0  0  0  0  0  0  0  0  0  0
   10.6800   -2.0160   23.0310 C   0  0  0  0  0  0  0  0  0  0  0  0
   10.7708   -2.6624   24.3814 C   0  0  0  0  0  0  0  0  0  0  0  0
    5.3339   -5.4290   22.5466 C   0  0  0  0  0  0  0  0  0  0  0  0
    4.3481   -6.0104   23.5161 C   0  0  0  0  0  0  0  0  0  0  0  0
    4.6518   -6.0106   24.9851 C   0  0  0  0  0  0  0  0  0  0  0  0
    3.6660   -6.5921   25.9547 C   0  0  0  0  0  0  0  0  0  0  0  0
    2.3766   -7.1734   25.4553 C   0  0  0  0  0  0  0  0  0  0  0  0
    2.0729   -7.1732   23.9864 C   0  0  0  0  0  0  0  0  0  0  0  0
    3.0587   -6.5917   23.0168 C   0  0  0  0  0  0  0  0  0  0  0  0
  1  2  1  0  0  0
  2  3  1  0  0  0
  3 18  1  0  0  0
 18 19  1  0  0  0
 19 20  2  0  0  0
 20 21  1  0  0  0
 21 22  2  0  0  0
 22 23  1  0  0  0
 23 24  2  0  0  0
  3  4  2  0  0  0
  4  5  1  0  0  0
  5  8  1  0  0  0
  8  9  2  0  0  0
  9 10  1  0  0  0
 10 11  2  0  0  0
 11 12  1  0  0  0
 12 13  2  0  0  0
 13 14  1  0  0  0
 14 15  2  0  0  0
 15 16  1  0  0  0
 16 17  2  0  0  0
  5  6  1  0  0  0
  6  7  2  0  0  0
  6  2  1  0  0  0
 24 19  1  0  0  0
 17  8  1  0  0  0
 17 12  1  0  0  0
M  END
> <minimizedAffinity>
-6.67367

> <CNNscore>
0.5029999614

> <CNNaffinity>
5.7667994499

> <CNN_VS>
2.9006998539

> <CNNaffinity_variance>
0.0898193121

$$$$



 24 27  0  0  0  0  0  0  0  0999 V2000
    7.4420   -4.5800   23.3384 C   0  0  0  0  0  0  0  0  0  0  0  0
    7.0524   -3.1320   23.3008 N   0  0  0  0  0  0  0  0  0  0  0  0
    7.6944   -2.0255   24.0841 C   0  0  0  0  0  0  0  0  0  0  0  0
    6.9911   -0.7459   23.7406 N   0  0  0  0  0  0  0  0  0  0  0  0
    5.9144   -1.0615   22.7451 N   0  0  0  0  0  0  0  0  0  0  0  0
    5.9523   -2.5362   22.4732 C   0  0  0  0  0  0  0  0  0  0  0  0
    5.0488   -3.2838   21.5380 O   0  0  0  0  0  0  0  0  0  0  0  0
    4.9663   -0.0755   22.1294 C   0  0  0  0  0  0  0  0  0  0  0  0
    3.9775    0.6525   22.9908 C   0  0  0  0  0  0  0  0  0  0  0  0
    3.0295    1.6385   22.3752 N   0  0  0  0  0  0  0  0  0  0  0  0
    3.0702    1.8964   20.8981 C   0  0  0  0  0  0  0  0  0  0  0  0
    4.0590    1.1683   20.0366 C   0  0  0  0  0  0  0  0  0  0  0  0
    4.0998    1.4261   18.5595 C   0  0  0  0  0  0  0  0  0  0  0  0
    5.0886    0.6980   17.6981 C   0  0  0  0  0  0  0  0  0  0  0  0
    6.0367   -0.2879   18.3137 C   0  0  0  0  0  0  0  0  0  0  0  0
    5.9959   -0.5458   19.7908 C   0  0  0  0  0  0  0  0  0  0  0  0
    5.0071    0.1823   20.6522 C   0  0  0  0  0  0  0  0  0  0  0  0
    8.8388   -2.1728   25.0426 C   0  0  0  0  0  0  0  0  0  0  0  0
   10.2321   -1.8306   24.6053 C   0  0  0  0  0  0  0  0  0  0  0  0
   10.5424   -1.6706   23.1465 C   0  0  0  0  0  0  0  0  0  0  0  0
   11.9358   -1.3283   22.7092 C   0  0  0  0  0  0  0  0  0  0  0  0
   13.0190   -1.1460   23.7307 C   0  0  0  0  0  0  0  0  0  0  0  0
   12.7087   -1.3060   25.1895 C   0  0  0  0  0  0  0  0  0  0  0  0
   11.3153   -1.6483   25.6268 C   0  0  0  0  0  0  0  0  0  0  0  0
  1  2  1  0  0  0
  2  3  1  0  0  0
  3 18  1  0  0  0
 18 19  1  0  0  0
 19 20  2  0  0  0
 20 21  1  0  0  0
 21 22  2  0  0  0
 22 23  1  0  0  0
 23 24  2  0  0  0
  3  4  2  0  0  0
  4  5  1  0  0  0
  5  8  1  0  0  0
  8  9  2  0  0  0
  9 10  1  0  0  0
 10 11  2  0  0  0
 11 12  1  0  0  0
 12 13  2  0  0  0
 13 14  1  0  0  0
 14 15  2  0  0  0
 15 16  1  0  0  0
 16 17  2  0  0  0
  5  6  1  0  0  0
  6  7  2  0  0  0
  6  2  1  0  0  0
 24 19  1  0  0  0
 17  8  1  0  0  0
 17 12  1  0  0  0
M  END
> <minimizedAffinity>
-7.35041

> <CNNscore>
0.4817794263

> <CNNaffinity>
5.6209268570

> <CNN_VS>
2.7080469131

> <CNNaffinity_variance>
0.3505125344

$$$$



 24 27  0  0  0  0  0  0  0  0999 V2000
    7.0256   -5.6293   23.8789 C   0  0  0  0  0  0  0  0  0  0  0  0
    7.2561   -4.1748   23.5937 N   0  0  0  0  0  0  0  0  0  0  0  0
    8.3139   -3.3114   24.2148 C   0  0  0  0  0  0  0  0  0  0  0  0
    8.1809   -1.9314   23.6422 N   0  0  0  0  0  0  0  0  0  0  0  0
    7.0410   -1.9418   22.6673 N   0  0  0  0  0  0  0  0  0  0  0  0
    6.4695   -3.3284   22.6373 C   0  0  0  0  0  0  0  0  0  0  0  0
    5.3141   -3.7878   21.7982 O   0  0  0  0  0  0  0  0  0  0  0  0
    6.5575   -0.7713   21.8635 C   0  0  0  0  0  0  0  0  0  0  0  0
    7.1762   -0.4699   20.5307 C   0  0  0  0  0  0  0  0  0  0  0  0
    6.6927    0.7006   19.7269 N   0  0  0  0  0  0  0  0  0  0  0  0
    5.5906    1.5697   20.2558 C   0  0  0  0  0  0  0  0  0  0  0  0
    4.9718    1.2684   21.5887 C   0  0  0  0  0  0  0  0  0  0  0  0
    3.8697    2.1375   22.1176 C   0  0  0  0  0  0  0  0  0  0  0  0
    3.2510    1.8361   23.4504 C   0  0  0  0  0  0  0  0  0  0  0  0
    3.7345    0.6656   24.2542 C   0  0  0  0  0  0  0  0  0  0  0  0
    4.8366   -0.2036   23.7253 C   0  0  0  0  0  0  0  0  0  0  0  0
    5.4553    0.0978   22.3925 C   0  0  0  0  0  0  0  0  0  0  0  0
    9.3267   -3.7508   25.2302 C   0  0  0  0  0  0  0  0  0  0  0  0
   10.6987   -3.1447   25.2319 C   0  0  0  0  0  0  0  0  0  0  0  0
   11.1443   -2.2943   24.0794 C   0  0  0  0  0  0  0  0  0  0  0  0
   12.5164   -1.6881   24.0810 C   0  0  0  0  0  0  0  0  0  0  0  0
   13.4429   -1.9323   25.2352 C   0  0  0  0  0  0  0  0  0  0  0  0
   12.9972   -2.7827   26.3876 C   0  0  0  0  0  0  0  0  0  0  0  0
   11.6251   -3.3889   26.3860 C   0  0  0  0  0  0  0  0  0  0  0  0
  1  2  1  0  0  0
  2  3  1  0  0  0
  3 18  1  0  0  0
 18 19  1  0  0  0
 19 20  2  0  0  0
 20 21  1  0  0  0
 21 22  2  0  0  0
 22 23  1  0  0  0
 23 24  2  0  0  0
  3  4  2  0  0  0
  4  5  1  0  0  0
  5  8  1  0  0  0
  8  9  2  0  0  0
  9 10  1  0  0  0
 10 11  2  0  0  0
 11 12  1  0  0  0
 12 13  2  0  0  0
 13 14  1  0  0  0
 14 15  2  0  0  0
 15 16  1  0  0  0
 16 17  2  0  0  0
  5  6  1  0  0  0
  6  7  2  0  0  0
  6  2  1  0  0  0
 24 19  1  0  0  0
 17  8  1  0  0  0
 17 12  1  0  0  0
M  END
> <minimizedAffinity>
-6.94206

> <CNNscore>
0.4568807483

> <CNNaffinity>
5.7919402122

> <CNN_VS>
2.6462259293

> <CNNaffinity_variance>
0.2926097810

$$$$
