


 35 40  0  0  0  0  0  0  0  0999 V2000
   -9.5732   -2.5071  -23.6940 C   0  0  0  0  0  0  0  0  0  0  0  0
   -8.3193   -2.7324  -22.9022 C   0  0  0  0  0  0  0  0  0  0  0  0
   -8.0441   -1.6044  -21.9525 C   0  0  0  0  0  0  0  0  0  0  0  0
   -6.7786   -1.9203  -21.2118 N   0  0  0  0  0  0  0  0  0  0  0  0
   -6.2717   -3.2436  -21.7036 C   0  0  0  0  0  0  0  0  0  0  0  0
   -5.0305   -3.9423  -21.2333 O   0  0  0  0  0  0  0  0  0  0  0  0
   -7.2238   -3.7455  -22.7484 C   0  0  0  0  0  0  0  0  0  0  0  0
   -6.0670   -4.6635  -22.4858 C   0  0  0  0  0  0  0  0  0  0  0  0
   -5.9451   -5.9522  -23.2437 N   0  0  0  0  0  0  0  0  0  0  0  0
   -6.9801   -6.3230  -24.2641 C   0  0  0  0  0  0  0  0  0  0  0  0
   -6.8582   -7.6117  -25.0219 O   0  0  0  0  0  0  0  0  0  0  0  0
   -8.1370   -5.4050  -24.5267 C   0  0  0  0  0  0  0  0  0  0  0  0
   -9.1720   -5.7757  -25.5471 C   0  0  0  0  0  0  0  0  0  0  0  0
  -10.3288   -4.8578  -25.8097 C   0  0  0  0  0  0  0  0  0  0  0  0
  -10.4507   -3.5691  -25.0519 C   0  0  0  0  0  0  0  0  0  0  0  0
  -11.6076   -2.6511  -25.3145 F   0  0  0  0  0  0  0  0  0  0  0  0
   -9.4157   -3.1983  -24.0314 C   0  0  0  0  0  0  0  0  0  0  0  0
   -8.2589   -4.1163  -23.7689 C   0  0  0  0  0  0  0  0  0  0  0  0
   -6.1334   -1.0635  -20.1632 C   0  0  0  0  0  0  0  0  0  0  0  0
   -6.6639   -1.0678  -18.7603 C   0  0  0  0  0  0  0  0  0  0  0  0
   -6.0187   -0.2110  -17.7118 N   0  0  0  0  0  0  0  0  0  0  0  0
   -4.8428    0.6503  -18.0663 C   0  0  0  0  0  0  0  0  0  0  0  0
   -4.3123    0.6546  -19.4693 C   0  0  0  0  0  0  0  0  0  0  0  0
   -3.1364    1.5159  -19.8238 C   0  0  0  0  0  0  0  0  0  0  0  0
   -2.6059    1.5202  -21.2269 C   0  0  0  0  0  0  0  0  0  0  0  0
   -3.2512    0.6634  -22.2753 C   0  0  0  0  0  0  0  0  0  0  0  0
   -4.4270   -0.1979  -21.9208 C   0  0  0  0  0  0  0  0  0  0  0  0
   -4.9575   -0.2022  -20.5179 C   0  0  0  0  0  0  0  0  0  0  0  0
   -4.7882   -6.8702  -22.9811 C   0  0  0  0  0  0  0  0  0  0  0  0
   -3.5272   -6.7357  -23.7821 C   0  0  0  0  0  0  0  0  0  0  0  0
   -3.4253   -6.2155  -25.1853 C   0  0  0  0  0  0  0  0  0  0  0  0
   -1.9818   -6.2560  -25.5910 N   0  0  0  0  0  0  0  0  0  0  0  0
   -1.1915   -6.8012  -24.4385 N   0  0  0  0  0  0  0  0  0  0  0  0
    0.2932   -7.0128  -24.4092 C   0  0  0  0  0  0  0  0  0  0  0  0
   -2.1466   -7.0976  -23.3206 C   0  0  0  0  0  0  0  0  0  0  0  0
  2  1  1  0  0  0
  2  3  1  0  0  0
  3  4  1  0  0  0
  4 19  1  0  0  0
 19 20  2  0  0  0
 20 21  1  0  0  0
 21 22  2  0  0  0
 22 23  1  0  0  0
 23 24  2  0  0  0
 24 25  1  0  0  0
 25 26  2  0  0  0
 26 27  1  0  0  0
 27 28  2  0  0  0
  4  5  1  0  0  0
  5  6  2  0  0  0
  5  7  1  0  0  0
  7  8  1  0  0  0
  8  9  1  0  0  0
  9 29  1  0  0  0
 29 30  1  0  0  0
 30 31  1  0  0  0
 31 32  2  0  0  0
 32 33  1  0  0  0
 33 34  1  0  0  0
 33 35  1  0  0  0
  9 10  1  0  0  0
 10 11  2  0  0  0
 10 12  1  0  0  0
 12 13  2  0  0  0
 13 14  1  0  0  0
 14 15  2  0  0  0
 15 16  1  0  0  0
 15 17  1  0  0  0
 17 18  2  0  0  0
  7  2  1  0  0  0
 35 30  2  0  0  0
 18 12  1  0  0  0
 28 19  1  0  0  0
 18  7  1  0  0  0
 28 23  1  0  0  0
M  END
> <minimizedAffinity>
-8.55698

> <CNNscore>
0.5086150169

> <CNNaffinity>
6.5471792221

> <CNN_VS>
3.3299937248

> <CNNaffinity_variance>
0.0853371769

$$$$



 35 40  0  0  0  0  0  0  0  0999 V2000
   -7.2926   -0.0425  -21.0887 C   0  0  0  0  0  0  0  0  0  0  0  0
   -8.4679   -0.2047  -22.0065 C   0  0  0  0  0  0  0  0  0  0  0  0
   -9.2883    1.0479  -22.0957 C   0  0  0  0  0  0  0  0  0  0  0  0
  -10.4321    0.7873  -23.0305 N   0  0  0  0  0  0  0  0  0  0  0  0
  -10.3186   -0.6264  -23.5189 C   0  0  0  0  0  0  0  0  0  0  0  0
  -11.2548   -1.3074  -24.4728 O   0  0  0  0  0  0  0  0  0  0  0  0
   -9.1047   -1.2395  -22.8861 C   0  0  0  0  0  0  0  0  0  0  0  0
   -9.8498   -2.1661  -23.8006 C   0  0  0  0  0  0  0  0  0  0  0  0
   -9.3589   -3.5678  -24.0105 N   0  0  0  0  0  0  0  0  0  0  0  0
   -8.1229   -4.0430  -23.3060 C   0  0  0  0  0  0  0  0  0  0  0  0
   -7.6319   -5.4448  -23.5159 O   0  0  0  0  0  0  0  0  0  0  0  0
   -7.3777   -3.1164  -22.3915 C   0  0  0  0  0  0  0  0  0  0  0  0
   -6.1417   -3.5916  -21.6869 C   0  0  0  0  0  0  0  0  0  0  0  0
   -5.3966   -2.6650  -20.7725 C   0  0  0  0  0  0  0  0  0  0  0  0
   -5.8875   -1.2633  -20.5625 C   0  0  0  0  0  0  0  0  0  0  0  0
   -5.1424   -0.3367  -19.6480 F   0  0  0  0  0  0  0  0  0  0  0  0
   -7.1235   -0.7881  -21.2671 C   0  0  0  0  0  0  0  0  0  0  0  0
   -7.8686   -1.7147  -22.1815 C   0  0  0  0  0  0  0  0  0  0  0  0
  -11.5016    1.7681  -23.4101 C   0  0  0  0  0  0  0  0  0  0  0  0
  -12.8849    1.6242  -22.8483 C   0  0  0  0  0  0  0  0  0  0  0  0
  -13.9544    2.6050  -23.2280 N   0  0  0  0  0  0  0  0  0  0  0  0
  -13.6405    3.7298  -24.1693 C   0  0  0  0  0  0  0  0  0  0  0  0
  -12.2571    3.8738  -24.7311 C   0  0  0  0  0  0  0  0  0  0  0  0
  -11.9433    4.9987  -25.6725 C   0  0  0  0  0  0  0  0  0  0  0  0
  -10.5599    5.1426  -26.2342 C   0  0  0  0  0  0  0  0  0  0  0  0
   -9.4905    4.1618  -25.8546 C   0  0  0  0  0  0  0  0  0  0  0  0
   -9.8044    3.0370  -24.9132 C   0  0  0  0  0  0  0  0  0  0  0  0
  -11.1876    2.8930  -24.3515 C   0  0  0  0  0  0  0  0  0  0  0  0
  -10.1040   -4.4944  -24.9250 C   0  0  0  0  0  0  0  0  0  0  0  0
   -9.3492   -5.4096  -25.8429 C   0  0  0  0  0  0  0  0  0  0  0  0
   -9.5429   -6.8921  -25.9648 C   0  0  0  0  0  0  0  0  0  0  0  0
   -8.5816   -7.4018  -26.9973 N   0  0  0  0  0  0  0  0  0  0  0  0
   -7.7938   -6.2343  -27.5137 N   0  0  0  0  0  0  0  0  0  0  0  0
   -6.7202   -6.2885  -28.5598 C   0  0  0  0  0  0  0  0  0  0  0  0
   -8.2683   -5.0031  -26.8002 C   0  0  0  0  0  0  0  0  0  0  0  0
  2  1  1  0  0  0
  2  3  1  0  0  0
  3  4  1  0  0  0
  4 19  1  0  0  0
 19 20  2  0  0  0
 20 21  1  0  0  0
 21 22  2  0  0  0
 22 23  1  0  0  0
 23 24  2  0  0  0
 24 25  1  0  0  0
 25 26  2  0  0  0
 26 27  1  0  0  0
 27 28  2  0  0  0
  4  5  1  0  0  0
  5  6  2  0  0  0
  5  7  1  0  0  0
  7  8  1  0  0  0
  8  9  1  0  0  0
  9 29  1  0  0  0
 29 30  1  0  0  0
 30 31  1  0  0  0
 31 32  2  0  0  0
 32 33  1  0  0  0
 33 34  1  0  0  0
 33 35  1  0  0  0
  9 10  1  0  0  0
 10 11  2  0  0  0
 10 12  1  0  0  0
 12 13  2  0  0  0
 13 14  1  0  0  0
 14 15  2  0  0  0
 15 16  1  0  0  0
 15 17  1  0  0  0
 17 18  2  0  0  0
  7  2  1  0  0  0
 35 30  2  0  0  0
 18 12  1  0  0  0
 28 19  1  0  0  0
 18  7  1  0  0  0
 28 23  1  0  0  0
M  END
> <minimizedAffinity>
-9.07807

> <CNNscore>
0.3856801391

> <CNNaffinity>
6.1926374435

> <CNN_VS>
2.3883771896

> <CNNaffinity_variance>
0.3118906319

$$$$



 35 40  0  0  0  0  0  0  0  0999 V2000
   -5.7298   -5.2578  -23.6532 C   0  0  0  0  0  0  0  0  0  0  0  0
   -6.4221   -4.1463  -22.9216 C   0  0  0  0  0  0  0  0  0  0  0  0
   -5.5169   -3.4765  -21.9306 C   0  0  0  0  0  0  0  0  0  0  0  0
   -6.2950   -2.3868  -21.2547 N   0  0  0  0  0  0  0  0  0  0  0  0
   -7.6812   -2.3831  -21.8279 C   0  0  0  0  0  0  0  0  0  0  0  0
   -8.7935   -1.4548  -21.4392 O   0  0  0  0  0  0  0  0  0  0  0  0
   -7.7597   -3.4705  -22.8581 C   0  0  0  0  0  0  0  0  0  0  0  0
   -9.0360   -2.7018  -22.6840 C   0  0  0  0  0  0  0  0  0  0  0  0
  -10.2406   -3.0520  -23.5063 N   0  0  0  0  0  0  0  0  0  0  0  0
  -10.1690   -4.1708  -24.5028 C   0  0  0  0  0  0  0  0  0  0  0  0
  -11.3737   -4.5210  -25.3251 O   0  0  0  0  0  0  0  0  0  0  0  0
   -8.8927   -4.9395  -24.6770 C   0  0  0  0  0  0  0  0  0  0  0  0
   -8.8212   -6.0583  -25.6736 C   0  0  0  0  0  0  0  0  0  0  0  0
   -7.5449   -6.8270  -25.8477 C   0  0  0  0  0  0  0  0  0  0  0  0
   -6.3403   -6.4768  -25.0254 C   0  0  0  0  0  0  0  0  0  0  0  0
   -5.0640   -7.2455  -25.1996 F   0  0  0  0  0  0  0  0  0  0  0  0
   -6.4119   -5.3580  -24.0289 C   0  0  0  0  0  0  0  0  0  0  0  0
   -7.6881   -4.5894  -23.8547 C   0  0  0  0  0  0  0  0  0  0  0  0
   -5.7779   -1.4629  -20.1921 C   0  0  0  0  0  0  0  0  0  0  0  0
   -6.2187   -1.6355  -18.7689 C   0  0  0  0  0  0  0  0  0  0  0  0
   -5.7015   -0.7117  -17.7063 N   0  0  0  0  0  0  0  0  0  0  0  0
   -4.7436    0.3847  -18.0671 C   0  0  0  0  0  0  0  0  0  0  0  0
   -4.3028    0.5573  -19.4904 C   0  0  0  0  0  0  0  0  0  0  0  0
   -3.3448    1.6538  -19.8512 C   0  0  0  0  0  0  0  0  0  0  0  0
   -2.9040    1.8263  -21.2746 C   0  0  0  0  0  0  0  0  0  0  0  0
   -3.4212    0.9024  -22.3371 C   0  0  0  0  0  0  0  0  0  0  0  0
   -4.3791   -0.1940  -21.9763 C   0  0  0  0  0  0  0  0  0  0  0  0
   -4.8199   -0.3665  -20.5530 C   0  0  0  0  0  0  0  0  0  0  0  0
  -11.5169   -2.2833  -23.3321 C   0  0  0  0  0  0  0  0  0  0  0  0
  -11.5352   -0.7999  -23.5540 C   0  0  0  0  0  0  0  0  0  0  0  0
  -10.3681    0.0431  -23.9748 C   0  0  0  0  0  0  0  0  0  0  0  0
  -10.8354    1.4649  -24.0750 N   0  0  0  0  0  0  0  0  0  0  0  0
  -12.2915    1.5006  -23.7162 N   0  0  0  0  0  0  0  0  0  0  0  0
  -13.1622    2.7216  -23.6850 C   0  0  0  0  0  0  0  0  0  0  0  0
  -12.7240    0.1008  -23.3943 C   0  0  0  0  0  0  0  0  0  0  0  0
  2  1  1  0  0  0
  2  3  1  0  0  0
  3  4  1  0  0  0
  4 19  1  0  0  0
 19 20  2  0  0  0
 20 21  1  0  0  0
 21 22  2  0  0  0
 22 23  1  0  0  0
 23 24  2  0  0  0
 24 25  1  0  0  0
 25 26  2  0  0  0
 26 27  1  0  0  0
 27 28  2  0  0  0
  4  5  1  0  0  0
  5  6  2  0  0  0
  5  7  1  0  0  0
  7  8  1  0  0  0
  8  9  1  0  0  0
  9 29  1  0  0  0
 29 30  1  0  0  0
 30 31  1  0  0  0
 31 32  2  0  0  0
 32 33  1  0  0  0
 33 34  1  0  0  0
 33 35  1  0  0  0
  9 10  1  0  0  0
 10 11  2  0  0  0
 10 12  1  0  0  0
 12 13  2  0  0  0
 13 14  1  0  0  0
 14 15  2  0  0  0
 15 16  1  0  0  0
 15 17  1  0  0  0
 17 18  2  0  0  0
  7  2  1  0  0  0
 35 30  2  0  0  0
 18 12  1  0  0  0
 28 19  1  0  0  0
 18  7  1  0  0  0
 28 23  1  0  0  0
M  END
> <minimizedAffinity>
-8.95628

> <CNNscore>
0.3340360820

> <CNNaffinity>
6.2145681381

> <CNN_VS>
2.0758900642

> <CNNaffinity_variance>
0.1539404392

$$$$



 35 40  0  0  0  0  0  0  0  0999 V2000
   -9.3138   -2.0883  -23.3688 C   0  0  0  0  0  0  0  0  0  0  0  0
   -8.9371   -0.8938  -24.1942 C   0  0  0  0  0  0  0  0  0  0  0  0
   -9.9597    0.1995  -24.0999 C   0  0  0  0  0  0  0  0  0  0  0  0
   -9.4964    1.3425  -24.9536 N   0  0  0  0  0  0  0  0  0  0  0  0
   -8.1874    0.9556  -25.5755 C   0  0  0  0  0  0  0  0  0  0  0  0
   -7.3679    1.8022  -26.5039 O   0  0  0  0  0  0  0  0  0  0  0  0
   -7.8417   -0.4265  -25.1062 C   0  0  0  0  0  0  0  0  0  0  0  0
   -6.8275    0.1742  -26.0338 C   0  0  0  0  0  0  0  0  0  0  0  0
   -5.6017   -0.6039  -26.4104 N   0  0  0  0  0  0  0  0  0  0  0  0
   -5.3900   -1.9829  -25.8594 C   0  0  0  0  0  0  0  0  0  0  0  0
   -4.1642   -2.7611  -26.2359 O   0  0  0  0  0  0  0  0  0  0  0  0
   -6.4042   -2.5837  -24.9317 C   0  0  0  0  0  0  0  0  0  0  0  0
   -6.1926   -3.9626  -24.3807 C   0  0  0  0  0  0  0  0  0  0  0  0
   -7.2068   -4.5634  -23.4530 C   0  0  0  0  0  0  0  0  0  0  0  0
   -8.4326   -3.7852  -23.0765 C   0  0  0  0  0  0  0  0  0  0  0  0
   -9.4468   -4.3860  -22.1488 F   0  0  0  0  0  0  0  0  0  0  0  0
   -8.6442   -2.4063  -23.6275 C   0  0  0  0  0  0  0  0  0  0  0  0
   -7.6301   -1.8055  -24.5551 C   0  0  0  0  0  0  0  0  0  0  0  0
  -10.2157    2.6439  -25.1508 C   0  0  0  0  0  0  0  0  0  0  0  0
   -9.9456    3.4727  -26.3714 C   0  0  0  0  0  0  0  0  0  0  0  0
  -10.6649    4.7741  -26.5686 N   0  0  0  0  0  0  0  0  0  0  0  0
  -11.6544    5.2467  -25.5451 C   0  0  0  0  0  0  0  0  0  0  0  0
  -11.9246    4.4178  -24.3244 C   0  0  0  0  0  0  0  0  0  0  0  0
  -12.9141    4.8904  -23.3008 C   0  0  0  0  0  0  0  0  0  0  0  0
  -13.1842    4.0615  -22.0802 C   0  0  0  0  0  0  0  0  0  0  0  0
  -12.4649    2.7601  -21.8831 C   0  0  0  0  0  0  0  0  0  0  0  0
  -11.4754    2.2876  -22.9066 C   0  0  0  0  0  0  0  0  0  0  0  0
  -11.2052    3.1164  -24.1272 C   0  0  0  0  0  0  0  0  0  0  0  0
   -4.5875   -0.0031  -27.3381 C   0  0  0  0  0  0  0  0  0  0  0  0
   -3.1546    0.1119  -26.9098 C   0  0  0  0  0  0  0  0  0  0  0  0
   -2.3982   -0.8866  -26.0847 C   0  0  0  0  0  0  0  0  0  0  0  0
   -1.0026   -0.3700  -25.8963 N   0  0  0  0  0  0  0  0  0  0  0  0
   -0.8965    0.9478  -26.6050 N   0  0  0  0  0  0  0  0  0  0  0  0
    0.3251    1.8154  -26.6750 C   0  0  0  0  0  0  0  0  0  0  0  0
   -2.2265    1.2456  -27.2313 C   0  0  0  0  0  0  0  0  0  0  0  0
  2  1  1  0  0  0
  2  3  1  0  0  0
  3  4  1  0  0  0
  4 19  1  0  0  0
 19 20  2  0  0  0
 20 21  1  0  0  0
 21 22  2  0  0  0
 22 23  1  0  0  0
 23 24  2  0  0  0
 24 25  1  0  0  0
 25 26  2  0  0  0
 26 27  1  0  0  0
 27 28  2  0  0  0
  4  5  1  0  0  0
  5  6  2  0  0  0
  5  7  1  0  0  0
  7  8  1  0  0  0
  8  9  1  0  0  0
  9 29  1  0  0  0
 29 30  1  0  0  0
 30 31  1  0  0  0
 31 32  2  0  0  0
 32 33  1  0  0  0
 33 34  1  0  0  0
 33 35  1  0  0  0
  9 10  1  0  0  0
 10 11  2  0  0  0
 10 12  1  0  0  0
 12 13  2  0  0  0
 13 14  1  0  0  0
 14 15  2  0  0  0
 15 16  1  0  0  0
 15 17  1  0  0  0
 17 18  2  0  0  0
  7  2  1  0  0  0
 35 30  2  0  0  0
 18 12  1  0  0  0
 28 19  1  0  0  0
 18  7  1  0  0  0
 28 23  1  0  0  0
M  END
> <minimizedAffinity>
-4.12960

> <CNNscore>
0.3219594955

> <CNNaffinity>
6.1075067520

> <CNN_VS>
1.9663697481

> <CNNaffinity_variance>
1.4185692072

$$$$



 35 40  0  0  0  0  0  0  0  0999 V2000
  -11.6374   -2.5447  -22.9133 C   0  0  0  0  0  0  0  0  0  0  0  0
  -10.1800   -2.4355  -23.2509 C   0  0  0  0  0  0  0  0  0  0  0  0
   -9.4570   -3.7337  -23.0461 C   0  0  0  0  0  0  0  0  0  0  0  0
   -8.0164   -3.5240  -23.4078 N   0  0  0  0  0  0  0  0  0  0  0  0
   -7.8491   -2.0963  -23.8362 C   0  0  0  0  0  0  0  0  0  0  0  0
   -6.5694   -1.4540  -24.2832 O   0  0  0  0  0  0  0  0  0  0  0  0
   -9.1863   -1.4235  -23.7393 C   0  0  0  0  0  0  0  0  0  0  0  0
   -8.0848   -0.5254  -24.2190 C   0  0  0  0  0  0  0  0  0  0  0  0
   -8.3770    0.9077  -24.5519 N   0  0  0  0  0  0  0  0  0  0  0  0
   -9.7706    1.4427  -24.4051 C   0  0  0  0  0  0  0  0  0  0  0  0
  -10.0628    2.8758  -24.7381 O   0  0  0  0  0  0  0  0  0  0  0  0
  -10.8721    0.5446  -23.9254 C   0  0  0  0  0  0  0  0  0  0  0  0
  -12.2657    1.0796  -23.7786 C   0  0  0  0  0  0  0  0  0  0  0  0
  -13.3672    0.1815  -23.2988 C   0  0  0  0  0  0  0  0  0  0  0  0
  -13.0750   -1.2516  -22.9659 C   0  0  0  0  0  0  0  0  0  0  0  0
  -14.1765   -2.1497  -22.4861 F   0  0  0  0  0  0  0  0  0  0  0  0
  -11.6814   -1.7866  -23.1127 C   0  0  0  0  0  0  0  0  0  0  0  0
  -10.5800   -0.8885  -23.5924 C   0  0  0  0  0  0  0  0  0  0  0  0
   -6.9333   -4.5602  -23.3511 C   0  0  0  0  0  0  0  0  0  0  0  0
   -6.1853   -4.7940  -22.0722 C   0  0  0  0  0  0  0  0  0  0  0  0
   -5.1022   -5.8301  -22.0155 N   0  0  0  0  0  0  0  0  0  0  0  0
   -4.7671   -6.6325  -23.2378 C   0  0  0  0  0  0  0  0  0  0  0  0
   -5.5152   -6.3986  -24.5168 C   0  0  0  0  0  0  0  0  0  0  0  0
   -5.1801   -7.2010  -25.7391 C   0  0  0  0  0  0  0  0  0  0  0  0
   -5.9282   -6.9671  -27.0180 C   0  0  0  0  0  0  0  0  0  0  0  0
   -7.0113   -5.9310  -27.0746 C   0  0  0  0  0  0  0  0  0  0  0  0
   -7.3463   -5.1287  -25.8524 C   0  0  0  0  0  0  0  0  0  0  0  0
   -6.5983   -5.3625  -24.5735 C   0  0  0  0  0  0  0  0  0  0  0  0
   -7.2755    1.8059  -25.0317 C   0  0  0  0  0  0  0  0  0  0  0  0
   -6.6328    2.7758  -24.0852 C   0  0  0  0  0  0  0  0  0  0  0  0
   -5.3641    2.5495  -23.3176 C   0  0  0  0  0  0  0  0  0  0  0  0
   -5.0931    3.7763  -22.4980 N   0  0  0  0  0  0  0  0  0  0  0  0
   -6.1943    4.7608  -22.7591 N   0  0  0  0  0  0  0  0  0  0  0  0
   -6.3216    6.1242  -22.1468 C   0  0  0  0  0  0  0  0  0  0  0  0
   -7.1459    4.1425  -23.7400 C   0  0  0  0  0  0  0  0  0  0  0  0
  2  1  1  0  0  0
  2  3  1  0  0  0
  3  4  1  0  0  0
  4 19  1  0  0  0
 19 20  2  0  0  0
 20 21  1  0  0  0
 21 22  2  0  0  0
 22 23  1  0  0  0
 23 24  2  0  0  0
 24 25  1  0  0  0
 25 26  2  0  0  0
 26 27  1  0  0  0
 27 28  2  0  0  0
  4  5  1  0  0  0
  5  6  2  0  0  0
  5  7  1  0  0  0
  7  8  1  0  0  0
  8  9  1  0  0  0
  9 29  1  0  0  0
 29 30  1  0  0  0
 30 31  1  0  0  0
 31 32  2  0  0  0
 32 33  1  0  0  0
 33 34  1  0  0  0
 33 35  1  0  0  0
  9 10  1  0  0  0
 10 11  2  0  0  0
 10 12  1  0  0  0
 12 13  2  0  0  0
 13 14  1  0  0  0
 14 15  2  0  0  0
 15 16  1  0  0  0
 15 17  1  0  0  0
 17 18  2  0  0  0
  7  2  1  0  0  0
 35 30  2  0  0  0
 18 12  1  0  0  0
 28 19  1  0  0  0
 18  7  1  0  0  0
 28 23  1  0  0  0
M  END
> <minimizedAffinity>
-7.70716

> <CNNscore>
0.2928383052

> <CNNaffinity>
6.3894643784

> <CNN_VS>
1.8710799217

> <CNNaffinity_variance>
0.1834064424

$$$$



 35 40  0  0  0  0  0  0  0  0999 V2000
   -9.9784   -4.3885  -25.3070 C   0  0  0  0  0  0  0  0  0  0  0  0
   -9.8211   -3.1978  -24.4084 C   0  0  0  0  0  0  0  0  0  0  0  0
  -10.8683   -2.1557  -24.6680 C   0  0  0  0  0  0  0  0  0  0  0  0
  -10.6281   -1.0127  -23.7268 N   0  0  0  0  0  0  0  0  0  0  0  0
   -9.4324   -1.3484  -22.8855 C   0  0  0  0  0  0  0  0  0  0  0  0
   -8.8397   -0.4851  -21.8116 O   0  0  0  0  0  0  0  0  0  0  0  0
   -8.9337   -2.6988  -23.3068 C   0  0  0  0  0  0  0  0  0  0  0  0
   -8.1361   -2.0712  -22.2023 C   0  0  0  0  0  0  0  0  0  0  0  0
   -6.9570   -2.7955  -21.6235 N   0  0  0  0  0  0  0  0  0  0  0  0
   -6.5754   -4.1476  -22.1492 C   0  0  0  0  0  0  0  0  0  0  0  0
   -5.3963   -4.8719  -21.5705 O   0  0  0  0  0  0  0  0  0  0  0  0
   -7.3730   -4.7753  -23.2538 C   0  0  0  0  0  0  0  0  0  0  0  0
   -6.9914   -6.1273  -23.7795 C   0  0  0  0  0  0  0  0  0  0  0  0
   -7.7890   -6.7550  -24.8839 C   0  0  0  0  0  0  0  0  0  0  0  0
   -8.9681   -6.0306  -25.4627 C   0  0  0  0  0  0  0  0  0  0  0  0
   -9.7657   -6.6584  -26.5672 F   0  0  0  0  0  0  0  0  0  0  0  0
   -9.3497   -4.6786  -24.9370 C   0  0  0  0  0  0  0  0  0  0  0  0
   -8.5521   -4.0509  -23.8325 C   0  0  0  0  0  0  0  0  0  0  0  0
  -11.4408    0.2452  -23.6418 C   0  0  0  0  0  0  0  0  0  0  0  0
  -12.8795    0.1816  -23.2223 C   0  0  0  0  0  0  0  0  0  0  0  0
  -13.6922    1.4395  -23.1373 N   0  0  0  0  0  0  0  0  0  0  0  0
  -13.0662    2.7609  -23.4718 C   0  0  0  0  0  0  0  0  0  0  0  0
  -11.6274    2.8245  -23.8913 C   0  0  0  0  0  0  0  0  0  0  0  0
  -11.0014    4.1460  -24.2259 C   0  0  0  0  0  0  0  0  0  0  0  0
   -9.5627    4.2095  -24.6454 C   0  0  0  0  0  0  0  0  0  0  0  0
   -8.7500    2.9516  -24.7304 C   0  0  0  0  0  0  0  0  0  0  0  0
   -9.3760    1.6302  -24.3959 C   0  0  0  0  0  0  0  0  0  0  0  0
  -10.8147    1.5666  -23.9763 C   0  0  0  0  0  0  0  0  0  0  0  0
   -6.1594   -2.1678  -20.5190 C   0  0  0  0  0  0  0  0  0  0  0  0
   -5.2074   -1.0493  -20.8235 C   0  0  0  0  0  0  0  0  0  0  0  0
   -4.6479   -0.7107  -22.1734 C   0  0  0  0  0  0  0  0  0  0  0  0
   -3.7425    0.4748  -22.0158 N   0  0  0  0  0  0  0  0  0  0  0  0
   -3.7425    0.8689  -20.5684 N   0  0  0  0  0  0  0  0  0  0  0  0
   -2.9723    2.0053  -19.9641 C   0  0  0  0  0  0  0  0  0  0  0  0
   -4.6478   -0.0731  -19.8316 C   0  0  0  0  0  0  0  0  0  0  0  0
  2  1  1  0  0  0
  2  3  1  0  0  0
  3  4  1  0  0  0
  4 19  1  0  0  0
 19 20  2  0  0  0
 20 21  1  0  0  0
 21 22  2  0  0  0
 22 23  1  0  0  0
 23 24  2  0  0  0
 24 25  1  0  0  0
 25 26  2  0  0  0
 26 27  1  0  0  0
 27 28  2  0  0  0
  4  5  1  0  0  0
  5  6  2  0  0  0
  5  7  1  0  0  0
  7  8  1  0  0  0
  8  9  1  0  0  0
  9 29  1  0  0  0
 29 30  1  0  0  0
 30 31  1  0  0  0
 31 32  2  0  0  0
 32 33  1  0  0  0
 33 34  1  0  0  0
 33 35  1  0  0  0
  9 10  1  0  0  0
 10 11  2  0  0  0
 10 12  1  0  0  0
 12 13  2  0  0  0
 13 14  1  0  0  0
 14 15  2  0  0  0
 15 16  1  0  0  0
 15 17  1  0  0  0
 17 18  2  0  0  0
  7  2  1  0  0  0
 35 30  2  0  0  0
 18 12  1  0  0  0
 28 19  1  0  0  0
 18  7  1  0  0  0
 28 23  1  0  0  0
M  END
> <minimizedAffinity>
-8.61200

> <CNNscore>
0.2842864394

> <CNNaffinity>
6.3797268867

> <CNN_VS>
1.8136698008

> <CNNaffinity_variance>
0.1000721082

$$$$



 35 40  0  0  0  0  0  0  0  0999 V2000
   -9.3008   -3.9170  -24.6619 C   0  0  0  0  0  0  0  0  0  0  0  0
   -9.3123   -2.6422  -23.8714 C   0  0  0  0  0  0  0  0  0  0  0  0
  -10.3979   -1.7108  -24.3230 C   0  0  0  0  0  0  0  0  0  0  0  0
  -10.3281   -0.4732  -23.4783 N   0  0  0  0  0  0  0  0  0  0  0  0
   -9.1993   -0.6398  -22.5046 C   0  0  0  0  0  0  0  0  0  0  0  0
   -8.7731    0.3588  -21.4696 O   0  0  0  0  0  0  0  0  0  0  0  0
   -8.5715   -1.9803  -22.7475 C   0  0  0  0  0  0  0  0  0  0  0  0
   -7.9289   -1.1972  -21.6413 C   0  0  0  0  0  0  0  0  0  0  0  0
   -6.7647   -1.7744  -20.8920 N   0  0  0  0  0  0  0  0  0  0  0  0
   -6.2431   -3.1347  -21.2489 C   0  0  0  0  0  0  0  0  0  0  0  0
   -5.0789   -3.7120  -20.4996 O   0  0  0  0  0  0  0  0  0  0  0  0
   -6.8857   -3.9179  -22.3552 C   0  0  0  0  0  0  0  0  0  0  0  0
   -6.3641   -5.2782  -22.7121 C   0  0  0  0  0  0  0  0  0  0  0  0
   -7.0067   -6.0613  -23.8184 C   0  0  0  0  0  0  0  0  0  0  0  0
   -8.1709   -5.4841  -24.5677 C   0  0  0  0  0  0  0  0  0  0  0  0
   -8.8135   -6.2673  -25.6740 F   0  0  0  0  0  0  0  0  0  0  0  0
   -8.6925   -4.1238  -24.2108 C   0  0  0  0  0  0  0  0  0  0  0  0
   -8.0499   -3.3407  -23.1045 C   0  0  0  0  0  0  0  0  0  0  0  0
  -11.2288    0.7211  -23.5879 C   0  0  0  0  0  0  0  0  0  0  0  0
  -12.6676    0.6156  -23.1774 C   0  0  0  0  0  0  0  0  0  0  0  0
  -13.5684    1.8100  -23.2871 N   0  0  0  0  0  0  0  0  0  0  0  0
  -13.0303    3.1099  -23.8072 C   0  0  0  0  0  0  0  0  0  0  0  0
  -11.5914    3.2155  -24.2177 C   0  0  0  0  0  0  0  0  0  0  0  0
  -11.0532    4.5155  -24.7378 C   0  0  0  0  0  0  0  0  0  0  0  0
   -9.6143    4.6210  -25.1482 C   0  0  0  0  0  0  0  0  0  0  0  0
   -8.7137    3.4266  -25.0386 C   0  0  0  0  0  0  0  0  0  0  0  0
   -9.2518    2.1266  -24.5185 C   0  0  0  0  0  0  0  0  0  0  0  0
  -10.6906    2.0211  -24.1080 C   0  0  0  0  0  0  0  0  0  0  0  0
   -6.1221   -0.9913  -19.7857 C   0  0  0  0  0  0  0  0  0  0  0  0
   -4.9403   -0.1142  -20.0760 C   0  0  0  0  0  0  0  0  0  0  0  0
   -4.2784    0.8219  -19.1089 C   0  0  0  0  0  0  0  0  0  0  0  0
   -3.1420    1.4953  -19.8196 N   0  0  0  0  0  0  0  0  0  0  0  0
   -3.1016    0.9754  -21.2261 N   0  0  0  0  0  0  0  0  0  0  0  0
   -2.1219    1.3793  -22.2876 C   0  0  0  0  0  0  0  0  0  0  0  0
   -4.2131   -0.0194  -21.3845 C   0  0  0  0  0  0  0  0  0  0  0  0
  2  1  1  0  0  0
  2  3  1  0  0  0
  3  4  1  0  0  0
  4 19  1  0  0  0
 19 20  2  0  0  0
 20 21  1  0  0  0
 21 22  2  0  0  0
 22 23  1  0  0  0
 23 24  2  0  0  0
 24 25  1  0  0  0
 25 26  2  0  0  0
 26 27  1  0  0  0
 27 28  2  0  0  0
  4  5  1  0  0  0
  5  6  2  0  0  0
  5  7  1  0  0  0
  7  8  1  0  0  0
  8  9  1  0  0  0
  9 29  1  0  0  0
 29 30  1  0  0  0
 30 31  1  0  0  0
 31 32  2  0  0  0
 32 33  1  0  0  0
 33 34  1  0  0  0
 33 35  1  0  0  0
  9 10  1  0  0  0
 10 11  2  0  0  0
 10 12  1  0  0  0
 12 13  2  0  0  0
 13 14  1  0  0  0
 14 15  2  0  0  0
 15 16  1  0  0  0
 15 17  1  0  0  0
 17 18  2  0  0  0
  7  2  1  0  0  0
 35 30  2  0  0  0
 18 12  1  0  0  0
 28 19  1  0  0  0
 18  7  1  0  0  0
 28 23  1  0  0  0
M  END
> <minimizedAffinity>
-9.13528

> <CNNscore>
0.1908644885

> <CNNaffinity>
6.1190452576

> <CNN_VS>
1.1679084301

> <CNNaffinity_variance>
0.1772018224

$$$$



 35 40  0  0  0  0  0  0  0  0999 V2000
  -11.1779   -2.1540  -24.3146 C   0  0  0  0  0  0  0  0  0  0  0  0
  -10.7213   -0.7693  -23.9623 C   0  0  0  0  0  0  0  0  0  0  0  0
  -11.8617    0.2040  -23.9175 C   0  0  0  0  0  0  0  0  0  0  0  0
  -11.3075    1.5512  -23.5596 N   0  0  0  0  0  0  0  0  0  0  0  0
   -9.8246    1.4104  -23.3833 C   0  0  0  0  0  0  0  0  0  0  0  0
   -8.8713    2.5106  -23.0215 O   0  0  0  0  0  0  0  0  0  0  0  0
   -9.4622   -0.0237  -23.6322 C   0  0  0  0  0  0  0  0  0  0  0  0
   -8.2927    0.8500  -23.2877 C   0  0  0  0  0  0  0  0  0  0  0  0
   -6.9135    0.2643  -23.2186 N   0  0  0  0  0  0  0  0  0  0  0  0
   -6.7039   -1.1952  -23.4940 C   0  0  0  0  0  0  0  0  0  0  0  0
   -5.3247   -1.7809  -23.4250 O   0  0  0  0  0  0  0  0  0  0  0  0
   -7.8734   -2.0690  -23.8385 C   0  0  0  0  0  0  0  0  0  0  0  0
   -7.6637   -3.5285  -24.1139 C   0  0  0  0  0  0  0  0  0  0  0  0
   -8.8333   -4.4023  -24.4584 C   0  0  0  0  0  0  0  0  0  0  0  0
  -10.2125   -3.8166  -24.5275 C   0  0  0  0  0  0  0  0  0  0  0  0
  -11.3820   -4.6904  -24.8720 F   0  0  0  0  0  0  0  0  0  0  0  0
  -10.4221   -2.3571  -24.2521 C   0  0  0  0  0  0  0  0  0  0  0  0
   -9.2526   -1.4833  -23.9076 C   0  0  0  0  0  0  0  0  0  0  0  0
  -12.0975    2.8169  -23.4051 C   0  0  0  0  0  0  0  0  0  0  0  0
  -13.0891    2.9504  -22.2876 C   0  0  0  0  0  0  0  0  0  0  0  0
  -13.8791    4.2161  -22.1332 N   0  0  0  0  0  0  0  0  0  0  0  0
  -13.6775    5.3483  -23.0962 C   0  0  0  0  0  0  0  0  0  0  0  0
  -12.6858    5.2148  -24.2137 C   0  0  0  0  0  0  0  0  0  0  0  0
  -12.4842    6.3470  -25.1767 C   0  0  0  0  0  0  0  0  0  0  0  0
  -11.4925    6.2135  -26.2942 C   0  0  0  0  0  0  0  0  0  0  0  0
  -10.7025    4.9478  -26.4486 C   0  0  0  0  0  0  0  0  0  0  0  0
  -10.9042    3.8156  -25.4856 C   0  0  0  0  0  0  0  0  0  0  0  0
  -11.8958    3.9491  -24.3682 C   0  0  0  0  0  0  0  0  0  0  0  0
   -5.7440    1.1381  -22.8741 C   0  0  0  0  0  0  0  0  0  0  0  0
   -5.1922    1.1372  -21.4793 C   0  0  0  0  0  0  0  0  0  0  0  0
   -4.0188    1.9362  -20.9949 C   0  0  0  0  0  0  0  0  0  0  0  0
   -3.8183    1.6299  -19.5402 N   0  0  0  0  0  0  0  0  0  0  0  0
   -4.8678    0.6416  -19.1257 N   0  0  0  0  0  0  0  0  0  0  0  0
   -5.0383    0.0600  -17.7536 C   0  0  0  0  0  0  0  0  0  0  0  0
   -5.7169    0.3371  -20.3241 C   0  0  0  0  0  0  0  0  0  0  0  0
  2  1  1  0  0  0
  2  3  1  0  0  0
  3  4  1  0  0  0
  4 19  1  0  0  0
 19 20  2  0  0  0
 20 21  1  0  0  0
 21 22  2  0  0  0
 22 23  1  0  0  0
 23 24  2  0  0  0
 24 25  1  0  0  0
 25 26  2  0  0  0
 26 27  1  0  0  0
 27 28  2  0  0  0
  4  5  1  0  0  0
  5  6  2  0  0  0
  5  7  1  0  0  0
  7  8  1  0  0  0
  8  9  1  0  0  0
  9 29  1  0  0  0
 29 30  1  0  0  0
 30 31  1  0  0  0
 31 32  2  0  0  0
 32 33  1  0  0  0
 33 34  1  0  0  0
 33 35  1  0  0  0
  9 10  1  0  0  0
 10 11  2  0  0  0
 10 12  1  0  0  0
 12 13  2  0  0  0
 13 14  1  0  0  0
 14 15  2  0  0  0
 15 16  1  0  0  0
 15 17  1  0  0  0
 17 18  2  0  0  0
  7  2  1  0  0  0
 35 30  2  0  0  0
 18 12  1  0  0  0
 28 19  1  0  0  0
 18  7  1  0  0  0
 28 23  1  0  0  0
M  END
> <minimizedAffinity>
-8.09732

> <CNNscore>
0.1872821450

> <CNNaffinity>
6.0783381462

> <CNN_VS>
1.1383641958

> <CNNaffinity_variance>
0.2343689650

$$$$



 35 40  0  0  0  0  0  0  0  0999 V2000
   -7.5650   -5.0386  -23.4760 C   0  0  0  0  0  0  0  0  0  0  0  0
   -7.2802   -3.5756  -23.3062 C   0  0  0  0  0  0  0  0  0  0  0  0
   -6.8301   -3.2488  -21.9132 C   0  0  0  0  0  0  0  0  0  0  0  0
   -6.5718   -1.7728  -21.8439 N   0  0  0  0  0  0  0  0  0  0  0  0
   -6.8623   -1.1875  -23.1941 C   0  0  0  0  0  0  0  0  0  0  0  0
   -6.7369    0.2582  -23.5738 O   0  0  0  0  0  0  0  0  0  0  0  0
   -7.3001   -2.3017  -24.0979 C   0  0  0  0  0  0  0  0  0  0  0  0
   -7.2711   -0.9556  -24.7590 C   0  0  0  0  0  0  0  0  0  0  0  0
   -7.6604   -0.8197  -26.2012 N   0  0  0  0  0  0  0  0  0  0  0  0
   -8.0787   -2.0300  -26.9823 C   0  0  0  0  0  0  0  0  0  0  0  0
   -8.4681   -1.8941  -28.4245 O   0  0  0  0  0  0  0  0  0  0  0  0
   -8.1078   -3.3762  -26.3212 C   0  0  0  0  0  0  0  0  0  0  0  0
   -8.5261   -4.5865  -27.1024 C   0  0  0  0  0  0  0  0  0  0  0  0
   -8.5551   -5.9326  -26.4413 C   0  0  0  0  0  0  0  0  0  0  0  0
   -8.1658   -6.0684  -24.9991 C   0  0  0  0  0  0  0  0  0  0  0  0
   -8.1948   -7.4147  -24.3380 F   0  0  0  0  0  0  0  0  0  0  0  0
   -7.7474   -4.8582  -24.2180 C   0  0  0  0  0  0  0  0  0  0  0  0
   -7.7184   -3.5121  -24.8790 C   0  0  0  0  0  0  0  0  0  0  0  0
   -6.1050   -1.0151  -20.6364 C   0  0  0  0  0  0  0  0  0  0  0  0
   -6.8651   -1.1165  -19.3473 C   0  0  0  0  0  0  0  0  0  0  0  0
   -6.3983   -0.3588  -18.1398 N   0  0  0  0  0  0  0  0  0  0  0  0
   -5.1714    0.5002  -18.2215 C   0  0  0  0  0  0  0  0  0  0  0  0
   -4.4112    0.6015  -19.5107 C   0  0  0  0  0  0  0  0  0  0  0  0
   -3.1842    1.4606  -19.5923 C   0  0  0  0  0  0  0  0  0  0  0  0
   -2.4242    1.5619  -20.8815 C   0  0  0  0  0  0  0  0  0  0  0  0
   -2.8910    0.8043  -22.0889 C   0  0  0  0  0  0  0  0  0  0  0  0
   -4.1179   -0.0548  -22.0072 C   0  0  0  0  0  0  0  0  0  0  0  0
   -4.8780   -0.1561  -20.7182 C   0  0  0  0  0  0  0  0  0  0  0  0
   -7.6314    0.5265  -26.8622 C   0  0  0  0  0  0  0  0  0  0  0  0
   -6.3679    1.0208  -27.5020 C   0  0  0  0  0  0  0  0  0  0  0  0
   -6.1696    2.3639  -28.1396 C   0  0  0  0  0  0  0  0  0  0  0  0
   -4.7601    2.4320  -28.6482 N   0  0  0  0  0  0  0  0  0  0  0  0
   -4.0873    1.1309  -28.3249 N   0  0  0  0  0  0  0  0  0  0  0  0
   -2.6697    0.7660  -28.6525 C   0  0  0  0  0  0  0  0  0  0  0  0
   -5.0810    0.2587  -27.6165 C   0  0  0  0  0  0  0  0  0  0  0  0
  2  1  1  0  0  0
  2  3  1  0  0  0
  3  4  1  0  0  0
  4 19  1  0  0  0
 19 20  2  0  0  0
 20 21  1  0  0  0
 21 22  2  0  0  0
 22 23  1  0  0  0
 23 24  2  0  0  0
 24 25  1  0  0  0
 25 26  2  0  0  0
 26 27  1  0  0  0
 27 28  2  0  0  0
  4  5  1  0  0  0
  5  6  2  0  0  0
  5  7  1  0  0  0
  7  8  1  0  0  0
  8  9  1  0  0  0
  9 29  1  0  0  0
 29 30  1  0  0  0
 30 31  1  0  0  0
 31 32  2  0  0  0
 32 33  1  0  0  0
 33 34  1  0  0  0
 33 35  1  0  0  0
  9 10  1  0  0  0
 10 11  2  0  0  0
 10 12  1  0  0  0
 12 13  2  0  0  0
 13 14  1  0  0  0
 14 15  2  0  0  0
 15 16  1  0  0  0
 15 17  1  0  0  0
 17 18  2  0  0  0
  7  2  1  0  0  0
 35 30  2  0  0  0
 18 12  1  0  0  0
 28 19  1  0  0  0
 18  7  1  0  0  0
 28 23  1  0  0  0
M  END
> <minimizedAffinity>
-7.60156

> <CNNscore>
0.1681621969

> <CNNaffinity>
6.0809898376

> <CNN_VS>
1.0225926638

> <CNNaffinity_variance>
0.0946790129

$$$$
