


 35 40  0  0  0  0  0  0  0  0999 V2000
    7.5935   -3.3388   23.4968 C   0  0  0  0  0  0  0  0  0  0  0  0
    7.7938   -2.0673   22.7265 C   0  0  0  0  0  0  0  0  0  0  0  0
    6.6896   -1.8282   21.7399 C   0  0  0  0  0  0  0  0  0  0  0  0
    6.9782   -0.5420   21.0240 N   0  0  0  0  0  0  0  0  0  0  0  0
    8.2607    0.0137   21.5682 C   0  0  0  0  0  0  0  0  0  0  0  0
    8.9229    1.2884   21.1361 O   0  0  0  0  0  0  0  0  0  0  0  0
    8.7648   -0.9290   22.6205 C   0  0  0  0  0  0  0  0  0  0  0  0
    9.6421    0.2681   22.4030 C   0  0  0  0  0  0  0  0  0  0  0  0
   10.8969    0.4345   23.2078 N   0  0  0  0  0  0  0  0  0  0  0  0
   11.2744   -0.5961   24.2302 C   0  0  0  0  0  0  0  0  0  0  0  0
   12.5292   -0.4296   25.0350 O   0  0  0  0  0  0  0  0  0  0  0  0
   10.3971   -1.7932   24.4477 C   0  0  0  0  0  0  0  0  0  0  0  0
   10.7746   -2.8238   25.4701 C   0  0  0  0  0  0  0  0  0  0  0  0
    9.8973   -4.0209   25.6876 C   0  0  0  0  0  0  0  0  0  0  0  0
    8.6425   -4.1873   24.8828 C   0  0  0  0  0  0  0  0  0  0  0  0
    7.7652   -5.3845   25.1003 F   0  0  0  0  0  0  0  0  0  0  0  0
    8.2650   -3.1567   23.8604 C   0  0  0  0  0  0  0  0  0  0  0  0
    9.1423   -1.9596   23.6429 C   0  0  0  0  0  0  0  0  0  0  0  0
    6.1326    0.0794   19.9521 C   0  0  0  0  0  0  0  0  0  0  0  0
    6.5298   -0.0542   18.5119 C   0  0  0  0  0  0  0  0  0  0  0  0
    5.6843    0.5672   17.4400 N   0  0  0  0  0  0  0  0  0  0  0  0
    4.4416    1.3221   17.8084 C   0  0  0  0  0  0  0  0  0  0  0  0
    4.0444    1.4556   19.2487 C   0  0  0  0  0  0  0  0  0  0  0  0
    2.8016    2.2106   19.6170 C   0  0  0  0  0  0  0  0  0  0  0  0
    2.4044    2.3440   21.0573 C   0  0  0  0  0  0  0  0  0  0  0  0
    3.2500    1.7227   22.1291 C   0  0  0  0  0  0  0  0  0  0  0  0
    4.4927    0.9678   21.7608 C   0  0  0  0  0  0  0  0  0  0  0  0
    4.8899    0.8343   20.3206 C   0  0  0  0  0  0  0  0  0  0  0  0
   11.7743    1.6317   22.9902 C   0  0  0  0  0  0  0  0  0  0  0  0
   11.1693    3.0026   22.9235 C   0  0  0  0  0  0  0  0  0  0  0  0
    9.7350    3.3476   23.1948 C   0  0  0  0  0  0  0  0  0  0  0  0
    9.5717    4.8275   23.0128 N   0  0  0  0  0  0  0  0  0  0  0  0
   10.9052    5.3973   22.6290 N   0  0  0  0  0  0  0  0  0  0  0  0
   11.1995    6.8413   22.3495 C   0  0  0  0  0  0  0  0  0  0  0  0
   11.8925    4.2694   22.5739 C   0  0  0  0  0  0  0  0  0  0  0  0
  2  1  1  0  0  0
  2  3  1  0  0  0
  3  4  1  0  0  0
  4 19  1  0  0  0
 19 20  2  0  0  0
 20 21  1  0  0  0
 21 22  2  0  0  0
 22 23  1  0  0  0
 23 24  2  0  0  0
 24 25  1  0  0  0
 25 26  2  0  0  0
 26 27  1  0  0  0
 27 28  2  0  0  0
  4  5  1  0  0  0
  5  6  2  0  0  0
  5  7  1  0  0  0
  7  8  1  0  0  0
  8  9  1  0  0  0
  9 29  1  0  0  0
 29 30  1  0  0  0
 30 31  1  0  0  0
 31 32  2  0  0  0
 32 33  1  0  0  0
 33 34  1  0  0  0
 33 35  1  0  0  0
  9 10  1  0  0  0
 10 11  2  0  0  0
 10 12  1  0  0  0
 12 13  2  0  0  0
 13 14  1  0  0  0
 14 15  2  0  0  0
 15 16  1  0  0  0
 15 17  1  0  0  0
 17 18  2  0  0  0
  7  2  1  0  0  0
 35 30  2  0  0  0
 18 12  1  0  0  0
 28 19  1  0  0  0
 18  7  1  0  0  0
 28 23  1  0  0  0
M  END
> <minimizedAffinity>
-9.93877

> <CNNscore>
0.6919469833

> <CNNaffinity>
6.9109482765

> <CNN_VS>
4.7820096016

> <CNNaffinity_variance>
0.1084008664

$$$$



 35 40  0  0  0  0  0  0  0  0999 V2000
   11.0046   -3.3850   26.1183 C   0  0  0  0  0  0  0  0  0  0  0  0
    9.6255   -2.8975   25.7857 C   0  0  0  0  0  0  0  0  0  0  0  0
    8.5621   -3.7989   26.3396 C   0  0  0  0  0  0  0  0  0  0  0  0
    7.2276   -3.2311   25.9568 N   0  0  0  0  0  0  0  0  0  0  0  0
    7.4662   -1.9788   25.1663 C   0  0  0  0  0  0  0  0  0  0  0  0
    6.4084   -1.0889   24.5838 O   0  0  0  0  0  0  0  0  0  0  0  0
    8.9481   -1.7726   25.0606 C   0  0  0  0  0  0  0  0  0  0  0  0
    8.1346   -0.7148   24.3757 C   0  0  0  0  0  0  0  0  0  0  0  0
    8.8191    0.4175   23.6689 N   0  0  0  0  0  0  0  0  0  0  0  0
   10.3171    0.4919   23.6471 C   0  0  0  0  0  0  0  0  0  0  0  0
   11.0015    1.6242   22.9404 O   0  0  0  0  0  0  0  0  0  0  0  0
   11.1307   -0.5660   24.3320 C   0  0  0  0  0  0  0  0  0  0  0  0
   12.6286   -0.4916   24.3102 C   0  0  0  0  0  0  0  0  0  0  0  0
   13.4421   -1.5494   24.9951 C   0  0  0  0  0  0  0  0  0  0  0  0
   12.7577   -2.6817   25.7018 C   0  0  0  0  0  0  0  0  0  0  0  0
   13.5712   -3.7395   26.3867 F   0  0  0  0  0  0  0  0  0  0  0  0
   11.2597   -2.7561   25.7237 C   0  0  0  0  0  0  0  0  0  0  0  0
   10.4462   -1.6982   25.0388 C   0  0  0  0  0  0  0  0  0  0  0  0
    5.8894   -3.8134   26.3035 C   0  0  0  0  0  0  0  0  0  0  0  0
    5.1201   -4.5894   25.2760 C   0  0  0  0  0  0  0  0  0  0  0  0
    3.7819   -5.1716   25.6227 N   0  0  0  0  0  0  0  0  0  0  0  0
    3.2131   -4.9778   26.9970 C   0  0  0  0  0  0  0  0  0  0  0  0
    3.9824   -4.2018   28.0246 C   0  0  0  0  0  0  0  0  0  0  0  0
    3.4135   -4.0081   29.3990 C   0  0  0  0  0  0  0  0  0  0  0  0
    4.1829   -3.2320   30.4266 C   0  0  0  0  0  0  0  0  0  0  0  0
    5.5210   -2.6498   30.0798 C   0  0  0  0  0  0  0  0  0  0  0  0
    6.0899   -2.8436   28.7054 C   0  0  0  0  0  0  0  0  0  0  0  0
    5.3206   -3.6196   27.6779 C   0  0  0  0  0  0  0  0  0  0  0  0
    8.0055    1.4754   22.9840 C   0  0  0  0  0  0  0  0  0  0  0  0
    7.6360    2.7300   23.7183 C   0  0  0  0  0  0  0  0  0  0  0  0
    6.8121    2.8093   24.9693 C   0  0  0  0  0  0  0  0  0  0  0  0
    6.6924    4.2540   25.3547 N   0  0  0  0  0  0  0  0  0  0  0  0
    7.4422    5.0676   24.3418 N   0  0  0  0  0  0  0  0  0  0  0  0
    7.5839    6.5609   24.3406 C   0  0  0  0  0  0  0  0  0  0  0  0
    8.0254    4.1258   23.3305 C   0  0  0  0  0  0  0  0  0  0  0  0
  2  1  1  0  0  0
  2  3  1  0  0  0
  3  4  1  0  0  0
  4 19  1  0  0  0
 19 20  2  0  0  0
 20 21  1  0  0  0
 21 22  2  0  0  0
 22 23  1  0  0  0
 23 24  2  0  0  0
 24 25  1  0  0  0
 25 26  2  0  0  0
 26 27  1  0  0  0
 27 28  2  0  0  0
  4  5  1  0  0  0
  5  6  2  0  0  0
  5  7  1  0  0  0
  7  8  1  0  0  0
  8  9  1  0  0  0
  9 29  1  0  0  0
 29 30  1  0  0  0
 30 31  1  0  0  0
 31 32  2  0  0  0
 32 33  1  0  0  0
 33 34  1  0  0  0
 33 35  1  0  0  0
  9 10  1  0  0  0
 10 11  2  0  0  0
 10 12  1  0  0  0
 12 13  2  0  0  0
 13 14  1  0  0  0
 14 15  2  0  0  0
 15 16  1  0  0  0
 15 17  1  0  0  0
 17 18  2  0  0  0
  7  2  1  0  0  0
 35 30  2  0  0  0
 18 12  1  0  0  0
 28 19  1  0  0  0
 18  7  1  0  0  0
 28 23  1  0  0  0
M  END
> <minimizedAffinity>
-8.03335

> <CNNscore>
0.4674072564

> <CNNaffinity>
6.7060441971

> <CNN_VS>
3.1344537735

> <CNNaffinity_variance>
0.1974080056

$$$$



 35 40  0  0  0  0  0  0  0  0999 V2000
   10.9998   -3.4012   25.9897 C   0  0  0  0  0  0  0  0  0  0  0  0
    9.6262   -2.9620   25.5769 C   0  0  0  0  0  0  0  0  0  0  0  0
    8.5603   -3.8684   26.1176 C   0  0  0  0  0  0  0  0  0  0  0  0
    7.2316   -3.3498   25.6535 N   0  0  0  0  0  0  0  0  0  0  0  0
    7.4763   -2.1228   24.8260 C   0  0  0  0  0  0  0  0  0  0  0  0
    6.4254   -1.2830   24.1623 O   0  0  0  0  0  0  0  0  0  0  0  0
    8.9562   -1.8832   24.7786 C   0  0  0  0  0  0  0  0  0  0  0  0
    8.1500   -0.8733   24.0170 C   0  0  0  0  0  0  0  0  0  0  0  0
    8.8390    0.2483   23.2977 N   0  0  0  0  0  0  0  0  0  0  0  0
   10.3342    0.3599   23.3399 C   0  0  0  0  0  0  0  0  0  0  0  0
   11.0232    1.4814   22.6206 O   0  0  0  0  0  0  0  0  0  0  0  0
   11.1405   -0.6501   24.1015 C   0  0  0  0  0  0  0  0  0  0  0  0
   12.6357   -0.5384   24.1437 C   0  0  0  0  0  0  0  0  0  0  0  0
   13.4419   -1.5483   24.9053 C   0  0  0  0  0  0  0  0  0  0  0  0
   12.7530   -2.6699   25.6247 C   0  0  0  0  0  0  0  0  0  0  0  0
   13.5593   -3.6798   26.3863 F   0  0  0  0  0  0  0  0  0  0  0  0
   11.2577   -2.7815   25.5824 C   0  0  0  0  0  0  0  0  0  0  0  0
   10.4515   -1.7716   24.8209 C   0  0  0  0  0  0  0  0  0  0  0  0
    5.8931   -3.9522   25.9627 C   0  0  0  0  0  0  0  0  0  0  0  0
    5.1473   -4.7066   24.9023 C   0  0  0  0  0  0  0  0  0  0  0  0
    3.8088   -5.3091   25.2115 N   0  0  0  0  0  0  0  0  0  0  0  0
    3.2163   -5.1571   26.5811 C   0  0  0  0  0  0  0  0  0  0  0  0
    3.9622   -4.4027   27.6415 C   0  0  0  0  0  0  0  0  0  0  0  0
    3.3696   -4.2507   29.0112 C   0  0  0  0  0  0  0  0  0  0  0  0
    4.1156   -3.4963   30.0715 C   0  0  0  0  0  0  0  0  0  0  0  0
    5.4540   -2.8939   29.7623 C   0  0  0  0  0  0  0  0  0  0  0  0
    6.0465   -3.0459   28.3927 C   0  0  0  0  0  0  0  0  0  0  0  0
    5.3007   -3.8002   27.3323 C   0  0  0  0  0  0  0  0  0  0  0  0
    8.0327    1.2582   22.5361 C   0  0  0  0  0  0  0  0  0  0  0  0
    7.2885    0.8463   21.3006 C   0  0  0  0  0  0  0  0  0  0  0  0
    7.6522   -0.2883   20.3894 C   0  0  0  0  0  0  0  0  0  0  0  0
    6.6384   -0.3391   19.2850 N   0  0  0  0  0  0  0  0  0  0  0  0
    5.6480    0.7641   19.5137 N   0  0  0  0  0  0  0  0  0  0  0  0
    4.4639    1.0793   18.6486 C   0  0  0  0  0  0  0  0  0  0  0  0
    6.0498    1.4967   20.7594 C   0  0  0  0  0  0  0  0  0  0  0  0
  2  1  1  0  0  0
  2  3  1  0  0  0
  3  4  1  0  0  0
  4 19  1  0  0  0
 19 20  2  0  0  0
 20 21  1  0  0  0
 21 22  2  0  0  0
 22 23  1  0  0  0
 23 24  2  0  0  0
 24 25  1  0  0  0
 25 26  2  0  0  0
 26 27  1  0  0  0
 27 28  2  0  0  0
  4  5  1  0  0  0
  5  6  2  0  0  0
  5  7  1  0  0  0
  7  8  1  0  0  0
  8  9  1  0  0  0
  9 29  1  0  0  0
 29 30  1  0  0  0
 30 31  1  0  0  0
 31 32  2  0  0  0
 32 33  1  0  0  0
 33 34  1  0  0  0
 33 35  1  0  0  0
  9 10  1  0  0  0
 10 11  2  0  0  0
 10 12  1  0  0  0
 12 13  2  0  0  0
 13 14  1  0  0  0
 14 15  2  0  0  0
 15 16  1  0  0  0
 15 17  1  0  0  0
 17 18  2  0  0  0
  7  2  1  0  0  0
 35 30  2  0  0  0
 18 12  1  0  0  0
 28 19  1  0  0  0
 18  7  1  0  0  0
 28 23  1  0  0  0
M  END
> <minimizedAffinity>
-8.90649

> <CNNscore>
0.4535036385

> <CNNaffinity>
6.7064423561

> <CNN_VS>
3.0413959026

> <CNNaffinity_variance>
0.0856188983

$$$$



 35 40  0  0  0  0  0  0  0  0999 V2000
   10.4906   -3.7647   25.4420 C   0  0  0  0  0  0  0  0  0  0  0  0
    9.1894   -3.4347   24.7726 C   0  0  0  0  0  0  0  0  0  0  0  0
    8.1976   -4.5539   24.8896 C   0  0  0  0  0  0  0  0  0  0  0  0
    6.9376   -4.1312   24.1942 N   0  0  0  0  0  0  0  0  0  0  0  0
    7.1507   -2.7507   23.6474 C   0  0  0  0  0  0  0  0  0  0  0  0
    6.1481   -1.9427   22.8781 O   0  0  0  0  0  0  0  0  0  0  0  0
    8.5424   -2.3203   24.0048 C   0  0  0  0  0  0  0  0  0  0  0  0
    7.7680   -1.2971   23.2281 C   0  0  0  0  0  0  0  0  0  0  0  0
    8.4014    0.0170   22.8791 N   0  0  0  0  0  0  0  0  0  0  0  0
    9.8094    0.3080   23.3068 C   0  0  0  0  0  0  0  0  0  0  0  0
   10.4428    1.6221   22.9578 O   0  0  0  0  0  0  0  0  0  0  0  0
   10.5839   -0.7152   24.0836 C   0  0  0  0  0  0  0  0  0  0  0  0
   11.9918   -0.4242   24.5114 C   0  0  0  0  0  0  0  0  0  0  0  0
   12.7663   -1.4473   25.2881 C   0  0  0  0  0  0  0  0  0  0  0  0
   12.1328   -2.7614   25.6371 C   0  0  0  0  0  0  0  0  0  0  0  0
   12.9073   -3.7846   26.4139 F   0  0  0  0  0  0  0  0  0  0  0  0
   10.7249   -3.0524   25.2094 C   0  0  0  0  0  0  0  0  0  0  0  0
    9.9504   -2.0293   24.4326 C   0  0  0  0  0  0  0  0  0  0  0  0
    5.6844   -4.9458   24.0678 C   0  0  0  0  0  0  0  0  0  0  0  0
    5.3454   -5.6027   22.7627 C   0  0  0  0  0  0  0  0  0  0  0  0
    4.0923   -6.4174   22.6362 N   0  0  0  0  0  0  0  0  0  0  0  0
    3.1782   -6.5751   23.8150 C   0  0  0  0  0  0  0  0  0  0  0  0
    3.5172   -5.9181   25.1202 C   0  0  0  0  0  0  0  0  0  0  0  0
    2.6030   -6.0759   26.2990 C   0  0  0  0  0  0  0  0  0  0  0  0
    2.9422   -5.4189   27.6042 C   0  0  0  0  0  0  0  0  0  0  0  0
    4.1953   -4.6043   27.7305 C   0  0  0  0  0  0  0  0  0  0  0  0
    5.1094   -4.4466   26.5517 C   0  0  0  0  0  0  0  0  0  0  0  0
    4.7704   -5.1035   25.2466 C   0  0  0  0  0  0  0  0  0  0  0  0
    7.6269    1.0401   22.1023 C   0  0  0  0  0  0  0  0  0  0  0  0
    7.0542    0.6881   20.7614 C   0  0  0  0  0  0  0  0  0  0  0  0
    7.5273   -0.4159   19.8629 C   0  0  0  0  0  0  0  0  0  0  0  0
    6.6734   -0.4080   18.6297 N   0  0  0  0  0  0  0  0  0  0  0  0
    5.6725    0.7009   18.7660 N   0  0  0  0  0  0  0  0  0  0  0  0
    4.6209    1.0679   17.7614 C   0  0  0  0  0  0  0  0  0  0  0  0
    5.9079    1.3783   20.0835 C   0  0  0  0  0  0  0  0  0  0  0  0
  2  1  1  0  0  0
  2  3  1  0  0  0
  3  4  1  0  0  0
  4 19  1  0  0  0
 19 20  2  0  0  0
 20 21  1  0  0  0
 21 22  2  0  0  0
 22 23  1  0  0  0
 23 24  2  0  0  0
 24 25  1  0  0  0
 25 26  2  0  0  0
 26 27  1  0  0  0
 27 28  2  0  0  0
  4  5  1  0  0  0
  5  6  2  0  0  0
  5  7  1  0  0  0
  7  8  1  0  0  0
  8  9  1  0  0  0
  9 29  1  0  0  0
 29 30  1  0  0  0
 30 31  1  0  0  0
 31 32  2  0  0  0
 32 33  1  0  0  0
 33 34  1  0  0  0
 33 35  1  0  0  0
  9 10  1  0  0  0
 10 11  2  0  0  0
 10 12  1  0  0  0
 12 13  2  0  0  0
 13 14  1  0  0  0
 14 15  2  0  0  0
 15 16  1  0  0  0
 15 17  1  0  0  0
 17 18  2  0  0  0
  7  2  1  0  0  0
 35 30  2  0  0  0
 18 12  1  0  0  0
 28 19  1  0  0  0
 18  7  1  0  0  0
 28 23  1  0  0  0
M  END
> <minimizedAffinity>
-9.27819

> <CNNscore>
0.3620007336

> <CNNaffinity>
6.6019659042

> <CNN_VS>
2.3899164200

> <CNNaffinity_variance>
0.0978699774

$$$$



 35 40  0  0  0  0  0  0  0  0999 V2000
    7.3009    0.1872   20.1572 C   0  0  0  0  0  0  0  0  0  0  0  0
    7.6250    0.0430   21.6147 C   0  0  0  0  0  0  0  0  0  0  0  0
    9.0526   -0.3608   21.8356 C   0  0  0  0  0  0  0  0  0  0  0  0
    9.2776   -0.4783   23.3140 N   0  0  0  0  0  0  0  0  0  0  0  0
    7.9890   -0.1471   24.0067 C   0  0  0  0  0  0  0  0  0  0  0  0
    7.7617   -0.1394   25.4894 O   0  0  0  0  0  0  0  0  0  0  0  0
    6.9676    0.1751   22.9565 C   0  0  0  0  0  0  0  0  0  0  0  0
    6.4485    0.2666   24.3608 C   0  0  0  0  0  0  0  0  0  0  0  0
    5.0205    0.6531   24.6088 N   0  0  0  0  0  0  0  0  0  0  0  0
    4.1117    0.9480   23.4526 C   0  0  0  0  0  0  0  0  0  0  0  0
    2.6837    1.3345   23.7006 O   0  0  0  0  0  0  0  0  0  0  0  0
    4.6308    0.8566   22.0482 C   0  0  0  0  0  0  0  0  0  0  0  0
    3.7219    1.1515   20.8920 C   0  0  0  0  0  0  0  0  0  0  0  0
    4.2411    1.0601   19.4877 C   0  0  0  0  0  0  0  0  0  0  0  0
    5.6691    0.6736   19.2396 C   0  0  0  0  0  0  0  0  0  0  0  0
    6.1882    0.5821   17.8353 F   0  0  0  0  0  0  0  0  0  0  0  0
    6.5779    0.3786   20.3959 C   0  0  0  0  0  0  0  0  0  0  0  0
    6.0588    0.4701   21.8002 C   0  0  0  0  0  0  0  0  0  0  0  0
   10.5651   -0.8600   23.9823 C   0  0  0  0  0  0  0  0  0  0  0  0
   11.7721    0.0193   23.8425 C   0  0  0  0  0  0  0  0  0  0  0  0
   13.0596   -0.3624   24.5108 N   0  0  0  0  0  0  0  0  0  0  0  0
   13.1400   -1.6235   25.3190 C   0  0  0  0  0  0  0  0  0  0  0  0
   11.9328   -2.5029   25.4588 C   0  0  0  0  0  0  0  0  0  0  0  0
   12.0132   -3.7641   26.2670 C   0  0  0  0  0  0  0  0  0  0  0  0
   10.8061   -4.6434   26.4067 C   0  0  0  0  0  0  0  0  0  0  0  0
    9.5187   -4.2617   25.7384 C   0  0  0  0  0  0  0  0  0  0  0  0
    9.4383   -3.0006   24.9303 C   0  0  0  0  0  0  0  0  0  0  0  0
   10.6453   -2.1212   24.7905 C   0  0  0  0  0  0  0  0  0  0  0  0
    4.5014    0.7446   26.0132 C   0  0  0  0  0  0  0  0  0  0  0  0
    5.2407    1.5569   27.0347 C   0  0  0  0  0  0  0  0  0  0  0  0
    5.6711    2.9856   26.8816 C   0  0  0  0  0  0  0  0  0  0  0  0
    6.3759    3.3949   28.1409 N   0  0  0  0  0  0  0  0  0  0  0  0
    6.3810    2.2190   29.0723 N   0  0  0  0  0  0  0  0  0  0  0  0
    6.9822    2.1851   30.4461 C   0  0  0  0  0  0  0  0  0  0  0  0
    5.6795    1.0831   28.3886 C   0  0  0  0  0  0  0  0  0  0  0  0
  2  1  1  0  0  0
  2  3  1  0  0  0
  3  4  1  0  0  0
  4 19  1  0  0  0
 19 20  2  0  0  0
 20 21  1  0  0  0
 21 22  2  0  0  0
 22 23  1  0  0  0
 23 24  2  0  0  0
 24 25  1  0  0  0
 25 26  2  0  0  0
 26 27  1  0  0  0
 27 28  2  0  0  0
  4  5  1  0  0  0
  5  6  2  0  0  0
  5  7  1  0  0  0
  7  8  1  0  0  0
  8  9  1  0  0  0
  9 29  1  0  0  0
 29 30  1  0  0  0
 30 31  1  0  0  0
 31 32  2  0  0  0
 32 33  1  0  0  0
 33 34  1  0  0  0
 33 35  1  0  0  0
  9 10  1  0  0  0
 10 11  2  0  0  0
 10 12  1  0  0  0
 12 13  2  0  0  0
 13 14  1  0  0  0
 14 15  2  0  0  0
 15 16  1  0  0  0
 15 17  1  0  0  0
 17 18  2  0  0  0
  7  2  1  0  0  0
 35 30  2  0  0  0
 18 12  1  0  0  0
 28 19  1  0  0  0
 18  7  1  0  0  0
 28 23  1  0  0  0
M  END
> <minimizedAffinity>
-8.64983

> <CNNscore>
0.3416236639

> <CNNaffinity>
6.4669342041

> <CNN_VS>
2.2092578411

> <CNNaffinity_variance>
0.0469280034

$$$$



 35 40  0  0  0  0  0  0  0  0999 V2000
    7.2023    0.1080   20.1153 C   0  0  0  0  0  0  0  0  0  0  0  0
    7.5683    0.0453   21.5687 C   0  0  0  0  0  0  0  0  0  0  0  0
    8.9858   -0.4009   21.7724 C   0  0  0  0  0  0  0  0  0  0  0  0
    9.2545   -0.4316   23.2478 N   0  0  0  0  0  0  0  0  0  0  0  0
    8.0031   -0.0043   23.9559 C   0  0  0  0  0  0  0  0  0  0  0  0
    7.8251    0.1085   25.4410 O   0  0  0  0  0  0  0  0  0  0  0  0
    6.9609    0.2905   22.9181 C   0  0  0  0  0  0  0  0  0  0  0  0
    6.4921    0.4936   24.3284 C   0  0  0  0  0  0  0  0  0  0  0  0
    5.0889    0.9528   24.5935 N   0  0  0  0  0  0  0  0  0  0  0  0
    4.1546    1.2090   23.4484 C   0  0  0  0  0  0  0  0  0  0  0  0
    2.7515    1.6682   23.7135 O   0  0  0  0  0  0  0  0  0  0  0  0
    4.6235    1.0059   22.0380 C   0  0  0  0  0  0  0  0  0  0  0  0
    3.6892    1.2621   20.8928 C   0  0  0  0  0  0  0  0  0  0  0  0
    4.1580    1.0590   19.4826 C   0  0  0  0  0  0  0  0  0  0  0  0
    5.5611    0.5998   19.2175 C   0  0  0  0  0  0  0  0  0  0  0  0
    6.0300    0.3967   17.8071 F   0  0  0  0  0  0  0  0  0  0  0  0
    6.4954    0.3436   20.3626 C   0  0  0  0  0  0  0  0  0  0  0  0
    6.0266    0.5467   21.7729 C   0  0  0  0  0  0  0  0  0  0  0  0
   10.5476   -0.8211   23.9006 C   0  0  0  0  0  0  0  0  0  0  0  0
   11.7650    0.0372   23.7246 C   0  0  0  0  0  0  0  0  0  0  0  0
   13.0581   -0.3523   24.3774 N   0  0  0  0  0  0  0  0  0  0  0  0
   13.1338   -1.6003   25.2062 C   0  0  0  0  0  0  0  0  0  0  0  0
   11.9163   -2.4587   25.3822 C   0  0  0  0  0  0  0  0  0  0  0  0
   11.9920   -3.7067   26.2110 C   0  0  0  0  0  0  0  0  0  0  0  0
   10.7744   -4.5650   26.3869 C   0  0  0  0  0  0  0  0  0  0  0  0
    9.4814   -4.1754   25.7341 C   0  0  0  0  0  0  0  0  0  0  0  0
    9.4058   -2.9275   24.9054 C   0  0  0  0  0  0  0  0  0  0  0  0
   10.6232   -2.0691   24.7294 C   0  0  0  0  0  0  0  0  0  0  0  0
    4.6201    1.1559   26.0039 C   0  0  0  0  0  0  0  0  0  0  0  0
    4.7160    0.0341   26.9950 C   0  0  0  0  0  0  0  0  0  0  0  0
    4.2492   -1.3750   26.7796 C   0  0  0  0  0  0  0  0  0  0  0  0
    4.5403   -2.1556   28.0269 N   0  0  0  0  0  0  0  0  0  0  0  0
    5.1871   -1.2289   29.0133 N   0  0  0  0  0  0  0  0  0  0  0  0
    5.6448   -1.5917   30.3949 C   0  0  0  0  0  0  0  0  0  0  0  0
    5.2957    0.1244   28.3755 C   0  0  0  0  0  0  0  0  0  0  0  0
  2  1  1  0  0  0
  2  3  1  0  0  0
  3  4  1  0  0  0
  4 19  1  0  0  0
 19 20  2  0  0  0
 20 21  1  0  0  0
 21 22  2  0  0  0
 22 23  1  0  0  0
 23 24  2  0  0  0
 24 25  1  0  0  0
 25 26  2  0  0  0
 26 27  1  0  0  0
 27 28  2  0  0  0
  4  5  1  0  0  0
  5  6  2  0  0  0
  5  7  1  0  0  0
  7  8  1  0  0  0
  8  9  1  0  0  0
  9 29  1  0  0  0
 29 30  1  0  0  0
 30 31  1  0  0  0
 31 32  2  0  0  0
 32 33  1  0  0  0
 33 34  1  0  0  0
 33 35  1  0  0  0
  9 10  1  0  0  0
 10 11  2  0  0  0
 10 12  1  0  0  0
 12 13  2  0  0  0
 13 14  1  0  0  0
 14 15  2  0  0  0
 15 16  1  0  0  0
 15 17  1  0  0  0
 17 18  2  0  0  0
  7  2  1  0  0  0
 35 30  2  0  0  0
 18 12  1  0  0  0
 28 19  1  0  0  0
 18  7  1  0  0  0
 28 23  1  0  0  0
M  END
> <minimizedAffinity>
-8.44172

> <CNNscore>
0.2808246613

> <CNNaffinity>
6.3283839226

> <CNN_VS>
1.7771662474

> <CNNaffinity_variance>
0.1325393468

$$$$



 35 40  0  0  0  0  0  0  0  0999 V2000
   10.6865   -3.6726   25.5094 C   0  0  0  0  0  0  0  0  0  0  0  0
    9.4848   -3.3553   24.6695 C   0  0  0  0  0  0  0  0  0  0  0  0
    8.4310   -4.4178   24.7724 C   0  0  0  0  0  0  0  0  0  0  0  0
    7.2777   -4.0125   23.9031 N   0  0  0  0  0  0  0  0  0  0  0  0
    7.6188   -2.6994   23.2631 C   0  0  0  0  0  0  0  0  0  0  0  0
    6.7485   -1.9280   22.3157 O   0  0  0  0  0  0  0  0  0  0  0  0
    8.9829   -2.2933   23.7367 C   0  0  0  0  0  0  0  0  0  0  0  0
    8.3508   -1.3178   22.7887 C   0  0  0  0  0  0  0  0  0  0  0  0
    9.0841   -0.0689   22.3981 N   0  0  0  0  0  0  0  0  0  0  0  0
   10.4495    0.2045   22.9556 C   0  0  0  0  0  0  0  0  0  0  0  0
   11.1828    1.4534   22.5650 O   0  0  0  0  0  0  0  0  0  0  0  0
   11.0817   -0.7710   23.9037 C   0  0  0  0  0  0  0  0  0  0  0  0
   12.4471   -0.4976   24.4612 C   0  0  0  0  0  0  0  0  0  0  0  0
   13.0792   -1.4731   25.4092 C   0  0  0  0  0  0  0  0  0  0  0  0
   12.3459   -2.7220   25.7998 C   0  0  0  0  0  0  0  0  0  0  0  0
   12.9781   -3.6975   26.7479 F   0  0  0  0  0  0  0  0  0  0  0  0
   10.9805   -2.9954   25.2423 C   0  0  0  0  0  0  0  0  0  0  0  0
   10.3484   -2.0199   24.2942 C   0  0  0  0  0  0  0  0  0  0  0  0
    6.0066   -4.7845   23.7082 C   0  0  0  0  0  0  0  0  0  0  0  0
    5.7015   -5.4029   22.3761 C   0  0  0  0  0  0  0  0  0  0  0  0
    4.4303   -6.1750   22.1812 N   0  0  0  0  0  0  0  0  0  0  0  0
    3.4643   -6.3286   23.3183 C   0  0  0  0  0  0  0  0  0  0  0  0
    3.7694   -5.7102   24.6504 C   0  0  0  0  0  0  0  0  0  0  0  0
    2.8032   -5.8638   25.7876 C   0  0  0  0  0  0  0  0  0  0  0  0
    3.1084   -5.2454   27.1196 C   0  0  0  0  0  0  0  0  0  0  0  0
    4.3795   -4.4733   27.3145 C   0  0  0  0  0  0  0  0  0  0  0  0
    5.3456   -4.3197   26.1774 C   0  0  0  0  0  0  0  0  0  0  0  0
    5.0405   -4.9381   24.8454 C   0  0  0  0  0  0  0  0  0  0  0  0
    8.4519    0.9066   21.4500 C   0  0  0  0  0  0  0  0  0  0  0  0
    6.9902    0.8018   21.1303 C   0  0  0  0  0  0  0  0  0  0  0  0
    6.3938    0.0852   19.9552 C   0  0  0  0  0  0  0  0  0  0  0  0
    4.9032    0.2357   20.0281 N   0  0  0  0  0  0  0  0  0  0  0  0
    4.5782    1.0455   21.2483 N   0  0  0  0  0  0  0  0  0  0  0  0
    3.2047    1.4367   21.7068 C   0  0  0  0  0  0  0  0  0  0  0  0
    5.8681    1.3953   21.9294 C   0  0  0  0  0  0  0  0  0  0  0  0
  2  1  1  0  0  0
  2  3  1  0  0  0
  3  4  1  0  0  0
  4 19  1  0  0  0
 19 20  2  0  0  0
 20 21  1  0  0  0
 21 22  2  0  0  0
 22 23  1  0  0  0
 23 24  2  0  0  0
 24 25  1  0  0  0
 25 26  2  0  0  0
 26 27  1  0  0  0
 27 28  2  0  0  0
  4  5  1  0  0  0
  5  6  2  0  0  0
  5  7  1  0  0  0
  7  8  1  0  0  0
  8  9  1  0  0  0
  9 29  1  0  0  0
 29 30  1  0  0  0
 30 31  1  0  0  0
 31 32  2  0  0  0
 32 33  1  0  0  0
 33 34  1  0  0  0
 33 35  1  0  0  0
  9 10  1  0  0  0
 10 11  2  0  0  0
 10 12  1  0  0  0
 12 13  2  0  0  0
 13 14  1  0  0  0
 14 15  2  0  0  0
 15 16  1  0  0  0
 15 17  1  0  0  0
 17 18  2  0  0  0
  7  2  1  0  0  0
 35 30  2  0  0  0
 18 12  1  0  0  0
 28 19  1  0  0  0
 18  7  1  0  0  0
 28 23  1  0  0  0
M  END
> <minimizedAffinity>
-9.07629

> <CNNscore>
0.2489170581

> <CNNaffinity>
6.4448575974

> <CNN_VS>
1.6042349339

> <CNNaffinity_variance>
0.1079907566

$$$$



 35 40  0  0  0  0  0  0  0  0999 V2000
   10.7233   -3.7209   25.6225 C   0  0  0  0  0  0  0  0  0  0  0  0
    9.5122   -3.4091   24.7940 C   0  0  0  0  0  0  0  0  0  0  0  0
    8.4464   -4.4543   24.9414 C   0  0  0  0  0  0  0  0  0  0  0  0
    7.2844   -4.0559   24.0806 N   0  0  0  0  0  0  0  0  0  0  0  0
    7.6321   -2.7645   23.4013 C   0  0  0  0  0  0  0  0  0  0  0  0
    6.7565   -2.0060   22.4483 O   0  0  0  0  0  0  0  0  0  0  0  0
    9.0089   -2.3648   23.8422 C   0  0  0  0  0  0  0  0  0  0  0  0
    8.3742   -1.4056   22.8795 C   0  0  0  0  0  0  0  0  0  0  0  0
    9.1173   -0.1772   22.4448 N   0  0  0  0  0  0  0  0  0  0  0  0
   10.4951    0.0920   22.9730 C   0  0  0  0  0  0  0  0  0  0  0  0
   11.2382    1.3204   22.5384 O   0  0  0  0  0  0  0  0  0  0  0  0
   11.1300   -0.8672   23.9358 C   0  0  0  0  0  0  0  0  0  0  0  0
   12.5078   -0.5981   24.4639 C   0  0  0  0  0  0  0  0  0  0  0  0
   13.1426   -1.5573   25.4267 C   0  0  0  0  0  0  0  0  0  0  0  0
   12.3995   -2.7857   25.8613 C   0  0  0  0  0  0  0  0  0  0  0  0
   13.0344   -3.7449   26.8241 F   0  0  0  0  0  0  0  0  0  0  0  0
   11.0216   -3.0548   25.3331 C   0  0  0  0  0  0  0  0  0  0  0  0
   10.3869   -2.0956   24.3704 C   0  0  0  0  0  0  0  0  0  0  0  0
    6.0002   -4.8155   23.9262 C   0  0  0  0  0  0  0  0  0  0  0  0
    5.6882   -5.5060   22.6318 C   0  0  0  0  0  0  0  0  0  0  0  0
    4.4040   -6.2656   22.4774 N   0  0  0  0  0  0  0  0  0  0  0  0
    3.4318   -6.3346   23.6176 C   0  0  0  0  0  0  0  0  0  0  0  0
    3.7438   -5.6439   24.9121 C   0  0  0  0  0  0  0  0  0  0  0  0
    2.7714   -5.7129   26.0523 C   0  0  0  0  0  0  0  0  0  0  0  0
    3.0835   -5.0223   27.3468 C   0  0  0  0  0  0  0  0  0  0  0  0
    4.3677   -4.2628   27.5011 C   0  0  0  0  0  0  0  0  0  0  0  0
    5.3399   -4.1938   26.3609 C   0  0  0  0  0  0  0  0  0  0  0  0
    5.0280   -4.8844   25.0665 C   0  0  0  0  0  0  0  0  0  0  0  0
    8.4824    0.7821   21.4820 C   0  0  0  0  0  0  0  0  0  0  0  0
    7.7661    1.9959   21.9952 C   0  0  0  0  0  0  0  0  0  0  0  0
    6.4281    2.4914   21.5324 C   0  0  0  0  0  0  0  0  0  0  0  0
    6.0970    3.7291   22.3125 N   0  0  0  0  0  0  0  0  0  0  0  0
    7.2304    3.9986   23.2574 N   0  0  0  0  0  0  0  0  0  0  0  0
    7.3170    5.1389   24.2280 C   0  0  0  0  0  0  0  0  0  0  0  0
    8.2619    2.9274   23.0613 C   0  0  0  0  0  0  0  0  0  0  0  0
  2  1  1  0  0  0
  2  3  1  0  0  0
  3  4  1  0  0  0
  4 19  1  0  0  0
 19 20  2  0  0  0
 20 21  1  0  0  0
 21 22  2  0  0  0
 22 23  1  0  0  0
 23 24  2  0  0  0
 24 25  1  0  0  0
 25 26  2  0  0  0
 26 27  1  0  0  0
 27 28  2  0  0  0
  4  5  1  0  0  0
  5  6  2  0  0  0
  5  7  1  0  0  0
  7  8  1  0  0  0
  8  9  1  0  0  0
  9 29  1  0  0  0
 29 30  1  0  0  0
 30 31  1  0  0  0
 31 32  2  0  0  0
 32 33  1  0  0  0
 33 34  1  0  0  0
 33 35  1  0  0  0
  9 10  1  0  0  0
 10 11  2  0  0  0
 10 12  1  0  0  0
 12 13  2  0  0  0
 13 14  1  0  0  0
 14 15  2  0  0  0
 15 16  1  0  0  0
 15 17  1  0  0  0
 17 18  2  0  0  0
  7  2  1  0  0  0
 35 30  2  0  0  0
 18 12  1  0  0  0
 28 19  1  0  0  0
 18  7  1  0  0  0
 28 23  1  0  0  0
M  END
> <minimizedAffinity>
-8.71531

> <CNNscore>
0.2429662347

> <CNNaffinity>
6.4874038696

> <CNN_VS>
1.5762200356

> <CNNaffinity_variance>
0.1597398818

$$$$



 35 40  0  0  0  0  0  0  0  0999 V2000
   10.9054   -3.2081   26.3921 C   0  0  0  0  0  0  0  0  0  0  0  0
    9.5748   -2.8604   25.7931 C   0  0  0  0  0  0  0  0  0  0  0  0
    8.4613   -3.6687   26.3903 C   0  0  0  0  0  0  0  0  0  0  0  0
    7.1803   -3.2513   25.7310 N   0  0  0  0  0  0  0  0  0  0  0  0
    7.5021   -2.1849   24.7264 C   0  0  0  0  0  0  0  0  0  0  0  0
    6.5169   -1.4834   23.8391 O   0  0  0  0  0  0  0  0  0  0  0  0
    8.9820   -1.9433   24.7647 C   0  0  0  0  0  0  0  0  0  0  0  0
    8.2499   -1.0890   23.7727 C   0  0  0  0  0  0  0  0  0  0  0  0
    9.0045   -0.1035   22.9305 N   0  0  0  0  0  0  0  0  0  0  0  0
   10.4911    0.0278   23.0804 C   0  0  0  0  0  0  0  0  0  0  0  0
   11.2457    1.0134   22.2382 O   0  0  0  0  0  0  0  0  0  0  0  0
   11.2233   -0.8265   24.0724 C   0  0  0  0  0  0  0  0  0  0  0  0
   12.7100   -0.6952   24.2223 C   0  0  0  0  0  0  0  0  0  0  0  0
   13.4421   -1.5495   25.2143 C   0  0  0  0  0  0  0  0  0  0  0  0
   12.6875   -2.5351   26.0565 C   0  0  0  0  0  0  0  0  0  0  0  0
   13.4197   -3.3894   27.0485 F   0  0  0  0  0  0  0  0  0  0  0  0
   11.2008   -2.6664   25.9066 C   0  0  0  0  0  0  0  0  0  0  0  0
   10.4687   -1.8121   24.9146 C   0  0  0  0  0  0  0  0  0  0  0  0
    5.8168   -3.8033   26.0248 C   0  0  0  0  0  0  0  0  0  0  0  0
    5.1405   -3.4793   27.3238 C   0  0  0  0  0  0  0  0  0  0  0  0
    3.7770   -4.0312   27.6176 N   0  0  0  0  0  0  0  0  0  0  0  0
    3.0899   -4.9072   26.6123 C   0  0  0  0  0  0  0  0  0  0  0  0
    3.7663   -5.2312   25.3132 C   0  0  0  0  0  0  0  0  0  0  0  0
    3.0792   -6.1072   24.3079 C   0  0  0  0  0  0  0  0  0  0  0  0
    3.7556   -6.4311   23.0089 C   0  0  0  0  0  0  0  0  0  0  0  0
    5.1190   -5.8791   22.7152 C   0  0  0  0  0  0  0  0  0  0  0  0
    5.8061   -5.0032   23.7205 C   0  0  0  0  0  0  0  0  0  0  0  0
    5.1298   -4.6792   25.0194 C   0  0  0  0  0  0  0  0  0  0  0  0
    8.2723    0.7509   21.9384 C   0  0  0  0  0  0  0  0  0  0  0  0
    7.8468    2.1393   22.3141 C   0  0  0  0  0  0  0  0  0  0  0  0
    8.4838    3.0036   23.3616 C   0  0  0  0  0  0  0  0  0  0  0  0
    7.7404    4.3057   23.4031 N   0  0  0  0  0  0  0  0  0  0  0  0
    6.6438    4.2462   22.3812 N   0  0  0  0  0  0  0  0  0  0  0  0
    5.6552    5.3345   22.0845 C   0  0  0  0  0  0  0  0  0  0  0  0
    6.7097    2.9073   21.7082 C   0  0  0  0  0  0  0  0  0  0  0  0
  2  1  1  0  0  0
  2  3  1  0  0  0
  3  4  1  0  0  0
  4 19  1  0  0  0
 19 20  2  0  0  0
 20 21  1  0  0  0
 21 22  2  0  0  0
 22 23  1  0  0  0
 23 24  2  0  0  0
 24 25  1  0  0  0
 25 26  2  0  0  0
 26 27  1  0  0  0
 27 28  2  0  0  0
  4  5  1  0  0  0
  5  6  2  0  0  0
  5  7  1  0  0  0
  7  8  1  0  0  0
  8  9  1  0  0  0
  9 29  1  0  0  0
 29 30  1  0  0  0
 30 31  1  0  0  0
 31 32  2  0  0  0
 32 33  1  0  0  0
 33 34  1  0  0  0
 33 35  1  0  0  0
  9 10  1  0  0  0
 10 11  2  0  0  0
 10 12  1  0  0  0
 12 13  2  0  0  0
 13 14  1  0  0  0
 14 15  2  0  0  0
 15 16  1  0  0  0
 15 17  1  0  0  0
 17 18  2  0  0  0
  7  2  1  0  0  0
 35 30  2  0  0  0
 18 12  1  0  0  0
 28 19  1  0  0  0
 18  7  1  0  0  0
 28 23  1  0  0  0
M  END
> <minimizedAffinity>
-8.16638

> <CNNscore>
0.2273494899

> <CNNaffinity>
6.4410905838

> <CNN_VS>
1.4643787146

> <CNNaffinity_variance>
0.2749277949

$$$$
