


 36 41  0  0  0  0  0  0  0  0999 V2000
   11.1395   -0.2538   22.7884 N   0  0  0  0  0  0  0  0  0  0  0  0
    9.8749   -1.0342   22.5846 C   0  0  0  0  0  0  0  0  0  0  0  0
    9.5607   -2.1994   23.4755 C   0  0  0  0  0  0  0  0  0  0  0  0
    9.1146   -3.3820   24.2831 C   0  0  0  0  0  0  0  0  0  0  0  0
    9.4830   -4.0610   25.2210 O   0  0  0  0  0  0  0  0  0  0  0  0
    7.7983   -3.8478   23.7351 N   0  0  0  0  0  0  0  0  0  0  0  0
    7.4308   -2.9529   22.5887 C   0  0  0  0  0  0  0  0  0  0  0  0
    8.5201   -1.9342   22.4283 C   0  0  0  0  0  0  0  0  0  0  0  0
    8.5614   -0.8420   21.4009 C   0  0  0  0  0  0  0  0  0  0  0  0
   10.5113   -2.5842   24.5703 C   0  0  0  0  0  0  0  0  0  0  0  0
   10.1972   -3.7493   25.4612 C   0  0  0  0  0  0  0  0  0  0  0  0
   11.1477   -4.1340   26.5559 C   0  0  0  0  0  0  0  0  0  0  0  0
   10.8336   -5.2992   27.4468 F   0  0  0  0  0  0  0  0  0  0  0  0
   12.4124   -3.3536   26.7597 C   0  0  0  0  0  0  0  0  0  0  0  0
   12.7265   -2.1884   25.8688 C   0  0  0  0  0  0  0  0  0  0  0  0
   11.7760   -1.8037   24.7741 C   0  0  0  0  0  0  0  0  0  0  0  0
   12.0901   -0.6385   23.8831 C   0  0  0  0  0  0  0  0  0  0  0  0
   13.0495   -0.2444   24.2295 O   0  0  0  0  0  0  0  0  0  0  0  0
    6.9912   -5.0051   24.2441 C   0  0  0  0  0  0  0  0  0  0  0  0
    7.2692   -6.3914   23.7432 C   0  0  0  0  0  0  0  0  0  0  0  0
    6.4621   -7.5487   24.2521 N   0  0  0  0  0  0  0  0  0  0  0  0
    5.3769   -7.3198   25.2620 C   0  0  0  0  0  0  0  0  0  0  0  0
    5.0988   -5.9335   25.7629 C   0  0  0  0  0  0  0  0  0  0  0  0
    4.0135   -5.7045   26.7728 C   0  0  0  0  0  0  0  0  0  0  0  0
    3.7355   -4.3182   27.2737 C   0  0  0  0  0  0  0  0  0  0  0  0
    4.5427   -3.1609   26.7647 C   0  0  0  0  0  0  0  0  0  0  0  0
    5.6279   -3.3898   25.7548 C   0  0  0  0  0  0  0  0  0  0  0  0
    5.9059   -4.7761   25.2539 C   0  0  0  0  0  0  0  0  0  0  0  0
   11.4536    0.9114   21.8975 C   0  0  0  0  0  0  0  0  0  0  0  0
    9.9456    2.9474   22.7494 N   0  0  0  0  0  0  0  0  0  0  0  0
   10.2172    4.3512   23.2029 N   0  0  0  0  0  0  0  0  0  0  0  0
   11.6974    4.5834   23.1313 C   0  0  0  0  0  0  0  0  0  0  0  0
   12.3407    3.3231   22.6336 C   0  0  0  0  0  0  0  0  0  0  0  0
   11.2581    2.3120   22.3975 C   0  0  0  0  0  0  0  0  0  0  0  0
    7.8772    1.8933   23.9157 C   0  0  0  0  0  0  0  0  0  0  0  0
    8.5983    2.2938   22.6630 C   0  0  0  0  0  0  0  0  0  0  0  0
 35 36  1  0  0  0
 36 30  1  0  0  0
 30 31  1  0  0  0
 31 32  2  0  0  0
 32 33  1  0  0  0
 33 34  2  0  0  0
 34 29  1  0  0  0
 29  1  1  0  0  0
  1  2  1  0  0  0
  3  2  1  0  0  0
  3  4  1  0  0  0
  4  5  2  0  0  0
  4  6  1  0  0  0
  6 19  1  0  0  0
 19 20  2  0  0  0
 20 21  1  0  0  0
 21 22  2  0  0  0
 22 23  1  0  0  0
 23 24  2  0  0  0
 24 25  1  0  0  0
 25 26  2  0  0  0
 26 27  1  0  0  0
 27 28  2  0  0  0
  6  7  1  0  0  0
  7  8  1  0  0  0
  8  9  1  0  0  0
  3 10  1  0  0  0
 10 11  2  0  0  0
 11 12  1  0  0  0
 12 13  1  0  0  0
 12 14  2  0  0  0
 14 15  1  0  0  0
 15 16  2  0  0  0
 16 17  1  0  0  0
 17 18  2  0  0  0
 34 30  1  0  0  0
 17  1  1  0  0  0
  8  3  1  0  0  0
 16 10  1  0  0  0
 28 19  1  0  0  0
 28 23  1  0  0  0
M  END
> <minimizedAffinity>
-8.45728

> <CNNscore>
0.4506818056

> <CNNaffinity>
6.9010114670

> <CNN_VS>
3.1101603508

> <CNNaffinity_variance>
0.2904604375

$$$$



 36 41  0  0  0  0  0  0  0  0999 V2000
    6.9415   -3.2357   23.8735 N   0  0  0  0  0  0  0  0  0  0  0  0
    7.1440   -1.8674   23.2933 C   0  0  0  0  0  0  0  0  0  0  0  0
    8.4220   -1.1254   23.5503 C   0  0  0  0  0  0  0  0  0  0  0  0
    9.6403   -0.2670   23.7204 C   0  0  0  0  0  0  0  0  0  0  0  0
   10.7269   -0.2903   24.2636 O   0  0  0  0  0  0  0  0  0  0  0  0
    9.4130    1.0137   22.9734 N   0  0  0  0  0  0  0  0  0  0  0  0
    8.0542    0.9470   22.3416 C   0  0  0  0  0  0  0  0  0  0  0  0
    7.4417   -0.3751   22.6982 C   0  0  0  0  0  0  0  0  0  0  0  0
    6.0868   -0.8614   22.2767 C   0  0  0  0  0  0  0  0  0  0  0  0
    9.4976   -1.7517   24.3875 C   0  0  0  0  0  0  0  0  0  0  0  0
   10.7756   -1.0097   24.6445 C   0  0  0  0  0  0  0  0  0  0  0  0
   11.8511   -1.6361   25.4817 C   0  0  0  0  0  0  0  0  0  0  0  0
   13.1292   -0.8941   25.7387 F   0  0  0  0  0  0  0  0  0  0  0  0
   11.6486   -3.0044   26.0619 C   0  0  0  0  0  0  0  0  0  0  0  0
   10.3706   -3.7464   25.8049 C   0  0  0  0  0  0  0  0  0  0  0  0
    9.2951   -3.1201   24.9677 C   0  0  0  0  0  0  0  0  0  0  0  0
    8.0170   -3.8621   24.7107 C   0  0  0  0  0  0  0  0  0  0  0  0
    8.1135   -4.8182   25.2325 O   0  0  0  0  0  0  0  0  0  0  0  0
   10.3756    2.1600   22.8753 C   0  0  0  0  0  0  0  0  0  0  0  0
   11.8331    1.8972   22.6378 C   0  0  0  0  0  0  0  0  0  0  0  0
   12.7957    3.0434   22.5397 N   0  0  0  0  0  0  0  0  0  0  0  0
   12.3007    4.4525   22.6793 C   0  0  0  0  0  0  0  0  0  0  0  0
   10.8431    4.7153   22.9168 C   0  0  0  0  0  0  0  0  0  0  0  0
   10.3480    6.1244   23.0564 C   0  0  0  0  0  0  0  0  0  0  0  0
    8.8904    6.3871   23.2939 C   0  0  0  0  0  0  0  0  0  0  0  0
    7.9279    5.2409   23.3920 C   0  0  0  0  0  0  0  0  0  0  0  0
    8.4229    3.8318   23.2524 C   0  0  0  0  0  0  0  0  0  0  0  0
    9.8805    3.5690   23.0149 C   0  0  0  0  0  0  0  0  0  0  0  0
    5.6634   -3.9777   23.6165 C   0  0  0  0  0  0  0  0  0  0  0  0
    5.7966   -6.6133   24.0425 N   0  0  0  0  0  0  0  0  0  0  0  0
    5.2590   -7.5475   25.0857 N   0  0  0  0  0  0  0  0  0  0  0  0
    4.4812   -6.7357   26.0786 C   0  0  0  0  0  0  0  0  0  0  0  0
    4.5380   -5.2996   25.6490 C   0  0  0  0  0  0  0  0  0  0  0  0
    5.3509   -5.2239   24.3907 C   0  0  0  0  0  0  0  0  0  0  0  0
    6.3332   -6.4226   21.5076 C   0  0  0  0  0  0  0  0  0  0  0  0
    6.6329   -7.0003   22.8590 C   0  0  0  0  0  0  0  0  0  0  0  0
 35 36  1  0  0  0
 36 30  1  0  0  0
 30 31  1  0  0  0
 31 32  2  0  0  0
 32 33  1  0  0  0
 33 34  2  0  0  0
 34 29  1  0  0  0
 29  1  1  0  0  0
  1  2  1  0  0  0
  3  2  1  0  0  0
  3  4  1  0  0  0
  4  5  2  0  0  0
  4  6  1  0  0  0
  6 19  1  0  0  0
 19 20  2  0  0  0
 20 21  1  0  0  0
 21 22  2  0  0  0
 22 23  1  0  0  0
 23 24  2  0  0  0
 24 25  1  0  0  0
 25 26  2  0  0  0
 26 27  1  0  0  0
 27 28  2  0  0  0
  6  7  1  0  0  0
  7  8  1  0  0  0
  8  9  1  0  0  0
  3 10  1  0  0  0
 10 11  2  0  0  0
 11 12  1  0  0  0
 12 13  1  0  0  0
 12 14  2  0  0  0
 14 15  1  0  0  0
 15 16  2  0  0  0
 16 17  1  0  0  0
 17 18  2  0  0  0
 34 30  1  0  0  0
 17  1  1  0  0  0
  8  3  1  0  0  0
 16 10  1  0  0  0
 28 19  1  0  0  0
 28 23  1  0  0  0
M  END
> <minimizedAffinity>
-8.40794

> <CNNscore>
0.4277081788

> <CNNaffinity>
6.7791070938

> <CNN_VS>
2.8994796276

> <CNNaffinity_variance>
0.1238307208

$$$$



 36 41  0  0  0  0  0  0  0  0999 V2000
   10.7016    0.1311   23.2068 N   0  0  0  0  0  0  0  0  0  0  0  0
    9.4594   -0.6784   22.9793 C   0  0  0  0  0  0  0  0  0  0  0  0
    9.2562   -1.9652   23.7228 C   0  0  0  0  0  0  0  0  0  0  0  0
    8.9164   -3.2650   24.3899 C   0  0  0  0  0  0  0  0  0  0  0  0
    9.3765   -4.0423   25.2026 O   0  0  0  0  0  0  0  0  0  0  0  0
    7.5860   -3.7202   23.8677 N   0  0  0  0  0  0  0  0  0  0  0  0
    7.1034   -2.7016   22.8779 C   0  0  0  0  0  0  0  0  0  0  0  0
    8.1357   -1.6170   22.7884 C   0  0  0  0  0  0  0  0  0  0  0  0
    8.0606   -0.3982   21.9173 C   0  0  0  0  0  0  0  0  0  0  0  0
   10.2952   -2.4425   24.6938 C   0  0  0  0  0  0  0  0  0  0  0  0
   10.0920   -3.7294   25.4372 C   0  0  0  0  0  0  0  0  0  0  0  0
   11.1310   -4.2067   26.4081 C   0  0  0  0  0  0  0  0  0  0  0  0
   10.9278   -5.4935   27.1517 F   0  0  0  0  0  0  0  0  0  0  0  0
   12.3731   -3.3971   26.6356 C   0  0  0  0  0  0  0  0  0  0  0  0
   12.5763   -2.1103   25.8921 C   0  0  0  0  0  0  0  0  0  0  0  0
   11.5374   -1.6330   24.9212 C   0  0  0  0  0  0  0  0  0  0  0  0
   11.7405   -0.3462   24.1777 C   0  0  0  0  0  0  0  0  0  0  0  0
   12.7043    0.0468   24.5132 O   0  0  0  0  0  0  0  0  0  0  0  0
    6.8647   -4.9738   24.2655 C   0  0  0  0  0  0  0  0  0  0  0  0
    7.2882   -6.2955   23.6966 C   0  0  0  0  0  0  0  0  0  0  0  0
    6.5670   -7.5491   24.0944 N   0  0  0  0  0  0  0  0  0  0  0  0
    5.4221   -7.4810   25.0612 C   0  0  0  0  0  0  0  0  0  0  0  0
    4.9986   -6.1592   25.6301 C   0  0  0  0  0  0  0  0  0  0  0  0
    3.8537   -6.0912   26.5970 C   0  0  0  0  0  0  0  0  0  0  0  0
    3.4302   -4.7694   27.1659 C   0  0  0  0  0  0  0  0  0  0  0  0
    4.1515   -3.5158   26.7681 C   0  0  0  0  0  0  0  0  0  0  0  0
    5.2963   -3.5839   25.8013 C   0  0  0  0  0  0  0  0  0  0  0  0
    5.7199   -4.9057   25.2323 C   0  0  0  0  0  0  0  0  0  0  0  0
   10.9047    1.4180   22.4633 C   0  0  0  0  0  0  0  0  0  0  0  0
   10.4757    4.0459   22.6986 N   0  0  0  0  0  0  0  0  0  0  0  0
    9.3087    4.8982   23.1009 N   0  0  0  0  0  0  0  0  0  0  0  0
    8.1622    3.9889   23.4302 C   0  0  0  0  0  0  0  0  0  0  0  0
    8.6205    2.5745   23.2314 C   0  0  0  0  0  0  0  0  0  0  0  0
   10.0503    2.6097   22.7793 C   0  0  0  0  0  0  0  0  0  0  0  0
   12.0192    5.9827   21.9132 C   0  0  0  0  0  0  0  0  0  0  0  0
   11.8302    4.5426   22.2877 C   0  0  0  0  0  0  0  0  0  0  0  0
 35 36  1  0  0  0
 36 30  1  0  0  0
 30 31  1  0  0  0
 31 32  2  0  0  0
 32 33  1  0  0  0
 33 34  2  0  0  0
 34 29  1  0  0  0
 29  1  1  0  0  0
  1  2  1  0  0  0
  3  2  1  0  0  0
  3  4  1  0  0  0
  4  5  2  0  0  0
  4  6  1  0  0  0
  6 19  1  0  0  0
 19 20  2  0  0  0
 20 21  1  0  0  0
 21 22  2  0  0  0
 22 23  1  0  0  0
 23 24  2  0  0  0
 24 25  1  0  0  0
 25 26  2  0  0  0
 26 27  1  0  0  0
 27 28  2  0  0  0
  6  7  1  0  0  0
  7  8  1  0  0  0
  8  9  1  0  0  0
  3 10  1  0  0  0
 10 11  2  0  0  0
 11 12  1  0  0  0
 12 13  1  0  0  0
 12 14  2  0  0  0
 14 15  1  0  0  0
 15 16  2  0  0  0
 16 17  1  0  0  0
 17 18  2  0  0  0
 34 30  1  0  0  0
 17  1  1  0  0  0
  8  3  1  0  0  0
 16 10  1  0  0  0
 28 19  1  0  0  0
 28 23  1  0  0  0
M  END
> <minimizedAffinity>
-8.98436

> <CNNscore>
0.4041252732

> <CNNaffinity>
6.7415213585

> <CNN_VS>
2.7244191170

> <CNNaffinity_variance>
0.2911958098

$$$$



 36 41  0  0  0  0  0  0  0  0999 V2000
    9.1436   -1.8696   24.3731 N   0  0  0  0  0  0  0  0  0  0  0  0
    8.7620   -0.7391   23.4640 C   0  0  0  0  0  0  0  0  0  0  0  0
    7.5414    0.0813   23.7591 C   0  0  0  0  0  0  0  0  0  0  0  0
    6.3551    0.9842   23.9250 C   0  0  0  0  0  0  0  0  0  0  0  0
    5.4157    1.1584   24.6758 O   0  0  0  0  0  0  0  0  0  0  0  0
    6.3596    1.9683   22.7930 N   0  0  0  0  0  0  0  0  0  0  0  0
    7.5487    1.6737   21.9274 C   0  0  0  0  0  0  0  0  0  0  0  0
    8.2791    0.5075   22.5245 C   0  0  0  0  0  0  0  0  0  0  0  0
    9.5279   -0.1221   21.9822 C   0  0  0  0  0  0  0  0  0  0  0  0
    6.7023   -0.2288   24.9632 C   0  0  0  0  0  0  0  0  0  0  0  0
    5.4818    0.5916   25.2583 C   0  0  0  0  0  0  0  0  0  0  0  0
    4.6428    0.2815   26.4624 C   0  0  0  0  0  0  0  0  0  0  0  0
    3.4221    1.1019   26.7575 F   0  0  0  0  0  0  0  0  0  0  0  0
    5.0244   -0.8490   27.3714 C   0  0  0  0  0  0  0  0  0  0  0  0
    6.2449   -1.6694   27.0764 C   0  0  0  0  0  0  0  0  0  0  0  0
    7.0839   -1.3593   25.8723 C   0  0  0  0  0  0  0  0  0  0  0  0
    8.3046   -2.1797   25.5772 C   0  0  0  0  0  0  0  0  0  0  0  0
    8.3647   -2.9273   26.3729 O   0  0  0  0  0  0  0  0  0  0  0  0
    5.3519    3.0561   22.5663 C   0  0  0  0  0  0  0  0  0  0  0  0
    5.3138    4.2453   23.4797 C   0  0  0  0  0  0  0  0  0  0  0  0
    4.3061    5.3331   23.2531 N   0  0  0  0  0  0  0  0  0  0  0  0
    3.3366    5.2316   22.1130 C   0  0  0  0  0  0  0  0  0  0  0  0
    3.3747    4.0423   21.1997 C   0  0  0  0  0  0  0  0  0  0  0  0
    2.4051    3.9408   20.0596 C   0  0  0  0  0  0  0  0  0  0  0  0
    2.4433    2.7515   19.1463 C   0  0  0  0  0  0  0  0  0  0  0  0
    3.4510    1.6638   19.3729 C   0  0  0  0  0  0  0  0  0  0  0  0
    4.4205    1.7653   20.5129 C   0  0  0  0  0  0  0  0  0  0  0  0
    4.3824    2.9545   21.4263 C   0  0  0  0  0  0  0  0  0  0  0  0
   10.3642   -2.6900   24.0780 C   0  0  0  0  0  0  0  0  0  0  0  0
   12.6849   -1.5007   24.6659 N   0  0  0  0  0  0  0  0  0  0  0  0
   13.7296   -1.6800   25.7272 N   0  0  0  0  0  0  0  0  0  0  0  0
   13.2946   -2.8035   26.6208 C   0  0  0  0  0  0  0  0  0  0  0  0
   11.9809   -3.3186   26.1117 C   0  0  0  0  0  0  0  0  0  0  0  0
   11.6041   -2.5134   24.9036 C   0  0  0  0  0  0  0  0  0  0  0  0
   13.0579   -0.9104   22.1634 C   0  0  0  0  0  0  0  0  0  0  0  0
   12.7155   -0.4867   23.5609 C   0  0  0  0  0  0  0  0  0  0  0  0
 35 36  1  0  0  0
 36 30  1  0  0  0
 30 31  1  0  0  0
 31 32  2  0  0  0
 32 33  1  0  0  0
 33 34  2  0  0  0
 34 29  1  0  0  0
 29  1  1  0  0  0
  1  2  1  0  0  0
  3  2  1  0  0  0
  3  4  1  0  0  0
  4  5  2  0  0  0
  4  6  1  0  0  0
  6 19  1  0  0  0
 19 20  2  0  0  0
 20 21  1  0  0  0
 21 22  2  0  0  0
 22 23  1  0  0  0
 23 24  2  0  0  0
 24 25  1  0  0  0
 25 26  2  0  0  0
 26 27  1  0  0  0
 27 28  2  0  0  0
  6  7  1  0  0  0
  7  8  1  0  0  0
  8  9  1  0  0  0
  3 10  1  0  0  0
 10 11  2  0  0  0
 11 12  1  0  0  0
 12 13  1  0  0  0
 12 14  2  0  0  0
 14 15  1  0  0  0
 15 16  2  0  0  0
 16 17  1  0  0  0
 17 18  2  0  0  0
 34 30  1  0  0  0
 17  1  1  0  0  0
  8  3  1  0  0  0
 16 10  1  0  0  0
 28 19  1  0  0  0
 28 23  1  0  0  0
M  END
> <minimizedAffinity>
-7.93703

> <CNNscore>
0.2712918222

> <CNNaffinity>
6.5579671860

> <CNN_VS>
1.7791228294

> <CNNaffinity_variance>
0.0294010285

$$$$



 36 41  0  0  0  0  0  0  0  0999 V2000
    4.8058    0.7573   21.3713 N   0  0  0  0  0  0  0  0  0  0  0  0
    6.0804   -0.0326   21.4116 C   0  0  0  0  0  0  0  0  0  0  0  0
    6.5125   -0.6945   22.6864 C   0  0  0  0  0  0  0  0  0  0  0  0
    7.0701   -1.4082   23.8821 C   0  0  0  0  0  0  0  0  0  0  0  0
    6.8067   -1.6128   25.0505 O   0  0  0  0  0  0  0  0  0  0  0  0
    8.3555   -2.0641   23.4727 N   0  0  0  0  0  0  0  0  0  0  0  0
    8.5924   -1.7557   22.0240 C   0  0  0  0  0  0  0  0  0  0  0  0
    7.4534   -0.9093   21.5380 C   0  0  0  0  0  0  0  0  0  0  0  0
    7.2848   -0.3720   20.1477 C   0  0  0  0  0  0  0  0  0  0  0  0
    5.6701   -0.5666   23.9209 C   0  0  0  0  0  0  0  0  0  0  0  0
    6.1023   -1.2286   25.1956 C   0  0  0  0  0  0  0  0  0  0  0  0
    5.2598   -1.1007   26.4301 C   0  0  0  0  0  0  0  0  0  0  0  0
    5.6920   -1.7626   27.7049 F   0  0  0  0  0  0  0  0  0  0  0  0
    3.9852   -0.3109   26.3898 C   0  0  0  0  0  0  0  0  0  0  0  0
    3.5531    0.3511   25.1150 C   0  0  0  0  0  0  0  0  0  0  0  0
    4.3955    0.2232   23.8806 C   0  0  0  0  0  0  0  0  0  0  0  0
    3.9634    0.8851   22.6057 C   0  0  0  0  0  0  0  0  0  0  0  0
    3.0200    1.3894   22.8328 O   0  0  0  0  0  0  0  0  0  0  0  0
    9.2474   -2.8843   24.3569 C   0  0  0  0  0  0  0  0  0  0  0  0
    8.7719   -4.2061   24.8828 C   0  0  0  0  0  0  0  0  0  0  0  0
    9.6638   -5.0263   25.7670 N   0  0  0  0  0  0  0  0  0  0  0  0
   11.0313   -4.5247   26.1253 C   0  0  0  0  0  0  0  0  0  0  0  0
   11.5068   -3.2028   25.5994 C   0  0  0  0  0  0  0  0  0  0  0  0
   12.8743   -2.7011   25.9577 C   0  0  0  0  0  0  0  0  0  0  0  0
   13.3498   -1.3792   25.4317 C   0  0  0  0  0  0  0  0  0  0  0  0
   12.4579   -0.5590   24.5476 C   0  0  0  0  0  0  0  0  0  0  0  0
   11.0904   -1.0607   24.1893 C   0  0  0  0  0  0  0  0  0  0  0  0
   10.6149   -2.3826   24.7152 C   0  0  0  0  0  0  0  0  0  0  0  0
    4.3737    1.4192   20.0965 C   0  0  0  0  0  0  0  0  0  0  0  0
    3.7304    3.9287   20.7554 N   0  0  0  0  0  0  0  0  0  0  0  0
    2.5212    4.7969   20.5709 N   0  0  0  0  0  0  0  0  0  0  0  0
    1.4831    3.9970   19.8412 C   0  0  0  0  0  0  0  0  0  0  0  0
    2.0507    2.6344   19.5747 C   0  0  0  0  0  0  0  0  0  0  0  0
    3.4396    2.5921   20.1396 C   0  0  0  0  0  0  0  0  0  0  0  0
    5.3957    5.7735   21.5127 C   0  0  0  0  0  0  0  0  0  0  0  0
    5.0064    4.3270   21.4361 C   0  0  0  0  0  0  0  0  0  0  0  0
 35 36  1  0  0  0
 36 30  1  0  0  0
 30 31  1  0  0  0
 31 32  2  0  0  0
 32 33  1  0  0  0
 33 34  2  0  0  0
 34 29  1  0  0  0
 29  1  1  0  0  0
  1  2  1  0  0  0
  3  2  1  0  0  0
  3  4  1  0  0  0
  4  5  2  0  0  0
  4  6  1  0  0  0
  6 19  1  0  0  0
 19 20  2  0  0  0
 20 21  1  0  0  0
 21 22  2  0  0  0
 22 23  1  0  0  0
 23 24  2  0  0  0
 24 25  1  0  0  0
 25 26  2  0  0  0
 26 27  1  0  0  0
 27 28  2  0  0  0
  6  7  1  0  0  0
  7  8  1  0  0  0
  8  9  1  0  0  0
  3 10  1  0  0  0
 10 11  2  0  0  0
 11 12  1  0  0  0
 12 13  1  0  0  0
 12 14  2  0  0  0
 14 15  1  0  0  0
 15 16  2  0  0  0
 16 17  1  0  0  0
 17 18  2  0  0  0
 34 30  1  0  0  0
 17  1  1  0  0  0
  8  3  1  0  0  0
 16 10  1  0  0  0
 28 19  1  0  0  0
 28 23  1  0  0  0
M  END
> <minimizedAffinity>
-7.90355

> <CNNscore>
0.2597551942

> <CNNaffinity>
6.5059022903

> <CNN_VS>
1.6899418831

> <CNNaffinity_variance>
0.0806690454

$$$$



 36 41  0  0  0  0  0  0  0  0999 V2000
    9.2461   -1.3320   24.6685 N   0  0  0  0  0  0  0  0  0  0  0  0
    9.3749   -0.0181   23.9563 C   0  0  0  0  0  0  0  0  0  0  0  0
    8.4110    1.0926   24.2515 C   0  0  0  0  0  0  0  0  0  0  0  0
    7.5262    2.2888   24.4414 C   0  0  0  0  0  0  0  0  0  0  0  0
    6.5594    2.6381   25.0893 O   0  0  0  0  0  0  0  0  0  0  0  0
    8.0155    3.3765   23.5317 N   0  0  0  0  0  0  0  0  0  0  0  0
    9.2029    2.8524   22.7796 C   0  0  0  0  0  0  0  0  0  0  0  0
    9.4473    1.4409   23.2245 C   0  0  0  0  0  0  0  0  0  0  0  0
   10.5367    0.5366   22.7293 C   0  0  0  0  0  0  0  0  0  0  0  0
    7.3183    0.8895   25.2590 C   0  0  0  0  0  0  0  0  0  0  0  0
    6.3545    2.0003   25.5542 C   0  0  0  0  0  0  0  0  0  0  0  0
    5.2618    1.7972   26.5615 C   0  0  0  0  0  0  0  0  0  0  0  0
    4.2979    2.9079   26.8568 F   0  0  0  0  0  0  0  0  0  0  0  0
    5.1330    0.4833   27.2737 C   0  0  0  0  0  0  0  0  0  0  0  0
    6.0969   -0.6275   26.9785 C   0  0  0  0  0  0  0  0  0  0  0  0
    7.1895   -0.4243   25.9711 C   0  0  0  0  0  0  0  0  0  0  0  0
    8.1534   -1.5351   25.6759 C   0  0  0  0  0  0  0  0  0  0  0  0
    7.8529   -2.3720   26.3123 O   0  0  0  0  0  0  0  0  0  0  0  0
    7.4218    4.7474   23.3976 C   0  0  0  0  0  0  0  0  0  0  0  0
    8.1368    5.9340   23.9728 C   0  0  0  0  0  0  0  0  0  0  0  0
    7.5431    7.3049   23.8388 N   0  0  0  0  0  0  0  0  0  0  0  0
    6.2344    7.4893   23.1294 C   0  0  0  0  0  0  0  0  0  0  0  0
    5.5194    6.3028   22.5542 C   0  0  0  0  0  0  0  0  0  0  0  0
    4.2105    6.4872   21.8448 C   0  0  0  0  0  0  0  0  0  0  0  0
    3.4956    5.3006   21.2696 C   0  0  0  0  0  0  0  0  0  0  0  0
    4.0893    3.9297   21.4036 C   0  0  0  0  0  0  0  0  0  0  0  0
    5.3981    3.7453   22.1130 C   0  0  0  0  0  0  0  0  0  0  0  0
    6.1131    4.9318   22.6882 C   0  0  0  0  0  0  0  0  0  0  0  0
   10.2100   -2.4428   24.3732 C   0  0  0  0  0  0  0  0  0  0  0  0
   11.9374   -3.4360   26.1551 N   0  0  0  0  0  0  0  0  0  0  0  0
   13.3496   -3.1224   26.5519 N   0  0  0  0  0  0  0  0  0  0  0  0
   13.8252   -1.9778   25.7072 C   0  0  0  0  0  0  0  0  0  0  0  0
   12.7070   -1.5839   24.7882 C   0  0  0  0  0  0  0  0  0  0  0  0
   11.5403   -2.4851   25.0650 C   0  0  0  0  0  0  0  0  0  0  0  0
   10.1626   -4.1961   27.8935 C   0  0  0  0  0  0  0  0  0  0  0  0
   11.0739   -4.5115   26.7447 C   0  0  0  0  0  0  0  0  0  0  0  0
 35 36  1  0  0  0
 36 30  1  0  0  0
 30 31  1  0  0  0
 31 32  2  0  0  0
 32 33  1  0  0  0
 33 34  2  0  0  0
 34 29  1  0  0  0
 29  1  1  0  0  0
  1  2  1  0  0  0
  3  2  1  0  0  0
  3  4  1  0  0  0
  4  5  2  0  0  0
  4  6  1  0  0  0
  6 19  1  0  0  0
 19 20  2  0  0  0
 20 21  1  0  0  0
 21 22  2  0  0  0
 22 23  1  0  0  0
 23 24  2  0  0  0
 24 25  1  0  0  0
 25 26  2  0  0  0
 26 27  1  0  0  0
 27 28  2  0  0  0
  6  7  1  0  0  0
  7  8  1  0  0  0
  8  9  1  0  0  0
  3 10  1  0  0  0
 10 11  2  0  0  0
 11 12  1  0  0  0
 12 13  1  0  0  0
 12 14  2  0  0  0
 14 15  1  0  0  0
 15 16  2  0  0  0
 16 17  1  0  0  0
 17 18  2  0  0  0
 34 30  1  0  0  0
 17  1  1  0  0  0
  8  3  1  0  0  0
 16 10  1  0  0  0
 28 19  1  0  0  0
 28 23  1  0  0  0
M  END
> <minimizedAffinity>
-7.44927

> <CNNscore>
0.2014627159

> <CNNaffinity>
6.2931127548

> <CNN_VS>
1.2678276300

> <CNNaffinity_variance>
0.1090606004

$$$$



 36 41  0  0  0  0  0  0  0  0999 V2000
    6.4452    0.8225   21.2476 N   0  0  0  0  0  0  0  0  0  0  0  0
    7.7720    0.8954   21.9434 C   0  0  0  0  0  0  0  0  0  0  0  0
    8.3400   -0.3251   22.6050 C   0  0  0  0  0  0  0  0  0  0  0  0
    9.0307   -1.4564   23.3071 C   0  0  0  0  0  0  0  0  0  0  0  0
    8.8667   -2.6334   23.5605 O   0  0  0  0  0  0  0  0  0  0  0  0
   10.3267   -0.9386   23.8570 N   0  0  0  0  0  0  0  0  0  0  0  0
   10.4369    0.5128   23.4948 C   0  0  0  0  0  0  0  0  0  0  0  0
    9.2090    0.8920   22.7211 C   0  0  0  0  0  0  0  0  0  0  0  0
    8.9039    2.2499   22.1615 C   0  0  0  0  0  0  0  0  0  0  0  0
    7.5811   -1.6185   22.5708 C   0  0  0  0  0  0  0  0  0  0  0  0
    8.1491   -2.8390   23.2324 C   0  0  0  0  0  0  0  0  0  0  0  0
    7.3902   -4.1324   23.1982 C   0  0  0  0  0  0  0  0  0  0  0  0
    7.9582   -5.3530   23.8598 F   0  0  0  0  0  0  0  0  0  0  0  0
    6.0634   -4.2053   22.5023 C   0  0  0  0  0  0  0  0  0  0  0  0
    5.4954   -2.9848   21.8407 C   0  0  0  0  0  0  0  0  0  0  0  0
    6.2543   -1.6914   21.8750 C   0  0  0  0  0  0  0  0  0  0  0  0
    5.6863   -0.4709   21.2133 C   0  0  0  0  0  0  0  0  0  0  0  0
    4.7284   -0.7785   20.7850 O   0  0  0  0  0  0  0  0  0  0  0  0
   11.3353   -1.7328   24.6328 C   0  0  0  0  0  0  0  0  0  0  0  0
   12.7850   -1.6810   24.2513 C   0  0  0  0  0  0  0  0  0  0  0  0
   13.7936   -2.4751   25.0271 N   0  0  0  0  0  0  0  0  0  0  0  0
   13.3525   -3.3211   26.1845 C   0  0  0  0  0  0  0  0  0  0  0  0
   11.9028   -3.3729   26.5661 C   0  0  0  0  0  0  0  0  0  0  0  0
   11.4617   -4.2190   27.7236 C   0  0  0  0  0  0  0  0  0  0  0  0
   10.0119   -4.2707   28.1052 C   0  0  0  0  0  0  0  0  0  0  0  0
    9.0033   -3.4765   27.3293 C   0  0  0  0  0  0  0  0  0  0  0  0
    9.4444   -2.6306   26.1719 C   0  0  0  0  0  0  0  0  0  0  0  0
   10.8942   -2.5788   25.7903 C   0  0  0  0  0  0  0  0  0  0  0  0
    5.8772    2.0431   20.5860 C   0  0  0  0  0  0  0  0  0  0  0  0
    3.6948    1.9637   19.0445 N   0  0  0  0  0  0  0  0  0  0  0  0
    2.2260    2.1637   19.2745 N   0  0  0  0  0  0  0  0  0  0  0  0
    2.0226    2.4758   20.7275 C   0  0  0  0  0  0  0  0  0  0  0  0
    3.3655    2.4686   21.3956 C   0  0  0  0  0  0  0  0  0  0  0  0
    4.3990    2.1521   20.3556 C   0  0  0  0  0  0  0  0  0  0  0  0
    5.1980    0.4058   17.6081 C   0  0  0  0  0  0  0  0  0  0  0  0
    4.3451    1.6332   17.7338 C   0  0  0  0  0  0  0  0  0  0  0  0
 35 36  1  0  0  0
 36 30  1  0  0  0
 30 31  1  0  0  0
 31 32  2  0  0  0
 32 33  1  0  0  0
 33 34  2  0  0  0
 34 29  1  0  0  0
 29  1  1  0  0  0
  1  2  1  0  0  0
  3  2  1  0  0  0
  3  4  1  0  0  0
  4  5  2  0  0  0
  4  6  1  0  0  0
  6 19  1  0  0  0
 19 20  2  0  0  0
 20 21  1  0  0  0
 21 22  2  0  0  0
 22 23  1  0  0  0
 23 24  2  0  0  0
 24 25  1  0  0  0
 25 26  2  0  0  0
 26 27  1  0  0  0
 27 28  2  0  0  0
  6  7  1  0  0  0
  7  8  1  0  0  0
  8  9  1  0  0  0
  3 10  1  0  0  0
 10 11  2  0  0  0
 11 12  1  0  0  0
 12 13  1  0  0  0
 12 14  2  0  0  0
 14 15  1  0  0  0
 15 16  2  0  0  0
 16 17  1  0  0  0
 17 18  2  0  0  0
 34 30  1  0  0  0
 17  1  1  0  0  0
  8  3  1  0  0  0
 16 10  1  0  0  0
 28 19  1  0  0  0
 28 23  1  0  0  0
M  END
> <minimizedAffinity>
-8.35714

> <CNNscore>
0.1974105090

> <CNNaffinity>
6.4092087746

> <CNN_VS>
1.2652451992

> <CNNaffinity_variance>
0.1605335325

$$$$



 36 41  0  0  0  0  0  0  0  0999 V2000
    5.6784    2.9802   22.3095 N   0  0  0  0  0  0  0  0  0  0  0  0
    6.5341    1.7483   22.3253 C   0  0  0  0  0  0  0  0  0  0  0  0
    6.9621    1.1491   23.6321 C   0  0  0  0  0  0  0  0  0  0  0  0
    7.4651    0.4406   24.8548 C   0  0  0  0  0  0  0  0  0  0  0  0
    7.4169    0.5258   26.0659 O   0  0  0  0  0  0  0  0  0  0  0  0
    8.2789   -0.7370   24.4064 N   0  0  0  0  0  0  0  0  0  0  0  0
    8.2787   -0.7563   22.9065 C   0  0  0  0  0  0  0  0  0  0  0  0
    7.4649    0.4093   22.4280 C   0  0  0  0  0  0  0  0  0  0  0  0
    7.2004    0.7716   20.9967 C   0  0  0  0  0  0  0  0  0  0  0  0
    6.5344    1.7818   24.9232 C   0  0  0  0  0  0  0  0  0  0  0  0
    6.9623    1.1826   26.2300 C   0  0  0  0  0  0  0  0  0  0  0  0
    6.5346    1.8153   27.5210 C   0  0  0  0  0  0  0  0  0  0  0  0
    6.9626    1.2161   28.8279 F   0  0  0  0  0  0  0  0  0  0  0  0
    5.6789    3.0472   27.5052 C   0  0  0  0  0  0  0  0  0  0  0  0
    5.2510    3.6464   26.1984 C   0  0  0  0  0  0  0  0  0  0  0  0
    5.6787    3.0137   24.9074 C   0  0  0  0  0  0  0  0  0  0  0  0
    5.2507    3.6129   23.6005 C   0  0  0  0  0  0  0  0  0  0  0  0
    4.6455    4.4877   23.8539 O   0  0  0  0  0  0  0  0  0  0  0  0
    8.9712   -1.7222   25.3008 C   0  0  0  0  0  0  0  0  0  0  0  0
    8.1650   -2.6661   26.1430 C   0  0  0  0  0  0  0  0  0  0  0  0
    8.8573   -3.6514   27.0374 N   0  0  0  0  0  0  0  0  0  0  0  0
   10.3558   -3.6927   27.0897 C   0  0  0  0  0  0  0  0  0  0  0  0
   11.1620   -2.7488   26.2475 C   0  0  0  0  0  0  0  0  0  0  0  0
   12.6606   -2.7902   26.2999 C   0  0  0  0  0  0  0  0  0  0  0  0
   13.4667   -1.8462   25.4577 C   0  0  0  0  0  0  0  0  0  0  0  0
   12.7744   -0.8610   24.5633 C   0  0  0  0  0  0  0  0  0  0  0  0
   11.2759   -0.8197   24.5110 C   0  0  0  0  0  0  0  0  0  0  0  0
   10.4697   -1.7636   25.3531 C   0  0  0  0  0  0  0  0  0  0  0  0
    5.2505    3.5794   21.0026 C   0  0  0  0  0  0  0  0  0  0  0  0
    3.4932    2.1535   19.5800 N   0  0  0  0  0  0  0  0  0  0  0  0
    2.0268    2.2668   19.2848 N   0  0  0  0  0  0  0  0  0  0  0  0
    1.5055    3.4857   19.9866 C   0  0  0  0  0  0  0  0  0  0  0  0
    2.6497    4.1257   20.7155 C   0  0  0  0  0  0  0  0  0  0  0  0
    3.8781    3.3024   20.4642 C   0  0  0  0  0  0  0  0  0  0  0  0
    4.7921    1.0336   17.6284 C   0  0  0  0  0  0  0  0  0  0  0  0
    4.4130    1.0798   19.0789 C   0  0  0  0  0  0  0  0  0  0  0  0
 35 36  1  0  0  0
 36 30  1  0  0  0
 30 31  1  0  0  0
 31 32  2  0  0  0
 32 33  1  0  0  0
 33 34  2  0  0  0
 34 29  1  0  0  0
 29  1  1  0  0  0
  1  2  1  0  0  0
  3  2  1  0  0  0
  3  4  1  0  0  0
  4  5  2  0  0  0
  4  6  1  0  0  0
  6 19  1  0  0  0
 19 20  2  0  0  0
 20 21  1  0  0  0
 21 22  2  0  0  0
 22 23  1  0  0  0
 23 24  2  0  0  0
 24 25  1  0  0  0
 25 26  2  0  0  0
 26 27  1  0  0  0
 27 28  2  0  0  0
  6  7  1  0  0  0
  7  8  1  0  0  0
  8  9  1  0  0  0
  3 10  1  0  0  0
 10 11  2  0  0  0
 11 12  1  0  0  0
 12 13  1  0  0  0
 12 14  2  0  0  0
 14 15  1  0  0  0
 15 16  2  0  0  0
 16 17  1  0  0  0
 17 18  2  0  0  0
 34 30  1  0  0  0
 17  1  1  0  0  0
  8  3  1  0  0  0
 16 10  1  0  0  0
 28 19  1  0  0  0
 28 23  1  0  0  0
M  END
> <minimizedAffinity>
-8.09320

> <CNNscore>
0.1882908046

> <CNNaffinity>
6.1296868324

> <CNN_VS>
1.1541637182

> <CNNaffinity_variance>
0.0658606142

$$$$



 36 41  0  0  0  0  0  0  0  0999 V2000
   10.7312   -0.4926   22.7941 N   0  0  0  0  0  0  0  0  0  0  0  0
    9.3530   -0.8235   22.3031 C   0  0  0  0  0  0  0  0  0  0  0  0
    8.3335    0.2646   22.1402 C   0  0  0  0  0  0  0  0  0  0  0  0
    7.2147    1.2411   21.9287 C   0  0  0  0  0  0  0  0  0  0  0  0
    6.9842    2.4295   22.0335 O   0  0  0  0  0  0  0  0  0  0  0  0
    6.0218    0.4791   21.4323 N   0  0  0  0  0  0  0  0  0  0  0  0
    6.4034   -0.9684   21.3370 C   0  0  0  0  0  0  0  0  0  0  0  0
    7.8320   -1.1010   21.7745 C   0  0  0  0  0  0  0  0  0  0  0  0
    8.6208   -2.3754   21.8355 C   0  0  0  0  0  0  0  0  0  0  0  0
    8.6921    1.6837   22.4683 C   0  0  0  0  0  0  0  0  0  0  0  0
    7.6726    2.7718   22.3053 C   0  0  0  0  0  0  0  0  0  0  0  0
    8.0313    4.1908   22.6334 C   0  0  0  0  0  0  0  0  0  0  0  0
    7.0117    5.2790   22.4705 F   0  0  0  0  0  0  0  0  0  0  0  0
    9.4094    4.5218   23.1244 C   0  0  0  0  0  0  0  0  0  0  0  0
   10.4290    3.4337   23.2873 C   0  0  0  0  0  0  0  0  0  0  0  0
   10.0703    2.0146   22.9593 C   0  0  0  0  0  0  0  0  0  0  0  0
   11.0898    0.9265   23.1222 C   0  0  0  0  0  0  0  0  0  0  0  0
   11.9974    1.4159   23.4863 O   0  0  0  0  0  0  0  0  0  0  0  0
    4.6826    1.0622   21.0911 C   0  0  0  0  0  0  0  0  0  0  0  0
    4.3830    1.4787   19.6816 C   0  0  0  0  0  0  0  0  0  0  0  0
    3.0437    2.0619   19.3404 N   0  0  0  0  0  0  0  0  0  0  0  0
    2.0041    2.2285   20.4088 C   0  0  0  0  0  0  0  0  0  0  0  0
    2.3038    1.8119   21.8183 C   0  0  0  0  0  0  0  0  0  0  0  0
    1.2641    1.9786   22.8867 C   0  0  0  0  0  0  0  0  0  0  0  0
    1.5638    1.5620   24.2962 C   0  0  0  0  0  0  0  0  0  0  0  0
    2.9030    0.9789   24.6374 C   0  0  0  0  0  0  0  0  0  0  0  0
    3.9426    0.8123   23.5690 C   0  0  0  0  0  0  0  0  0  0  0  0
    3.6430    1.2288   22.1595 C   0  0  0  0  0  0  0  0  0  0  0  0
   11.7507   -1.5808   22.9570 C   0  0  0  0  0  0  0  0  0  0  0  0
   11.2400   -2.8933   25.2290 N   0  0  0  0  0  0  0  0  0  0  0  0
   11.9986   -3.1546   26.4964 N   0  0  0  0  0  0  0  0  0  0  0  0
   13.3398   -2.4932   26.3787 C   0  0  0  0  0  0  0  0  0  0  0  0
   13.4101   -1.8232   25.0385 C   0  0  0  0  0  0  0  0  0  0  0  0
   12.1125   -2.0704   24.3279 C   0  0  0  0  0  0  0  0  0  0  0  0
    8.7035   -2.9564   25.7875 C   0  0  0  0  0  0  0  0  0  0  0  0
    9.8527   -3.3710   24.9173 C   0  0  0  0  0  0  0  0  0  0  0  0
 35 36  1  0  0  0
 36 30  1  0  0  0
 30 31  1  0  0  0
 31 32  2  0  0  0
 32 33  1  0  0  0
 33 34  2  0  0  0
 34 29  1  0  0  0
 29  1  1  0  0  0
  1  2  1  0  0  0
  3  2  1  0  0  0
  3  4  1  0  0  0
  4  5  2  0  0  0
  4  6  1  0  0  0
  6 19  1  0  0  0
 19 20  2  0  0  0
 20 21  1  0  0  0
 21 22  2  0  0  0
 22 23  1  0  0  0
 23 24  2  0  0  0
 24 25  1  0  0  0
 25 26  2  0  0  0
 26 27  1  0  0  0
 27 28  2  0  0  0
  6  7  1  0  0  0
  7  8  1  0  0  0
  8  9  1  0  0  0
  3 10  1  0  0  0
 10 11  2  0  0  0
 11 12  1  0  0  0
 12 13  1  0  0  0
 12 14  2  0  0  0
 14 15  1  0  0  0
 15 16  2  0  0  0
 16 17  1  0  0  0
 17 18  2  0  0  0
 34 30  1  0  0  0
 17  1  1  0  0  0
  8  3  1  0  0  0
 16 10  1  0  0  0
 28 19  1  0  0  0
 28 23  1  0  0  0
M  END
> <minimizedAffinity>
-7.61928

> <CNNscore>
0.1823620051

> <CNNaffinity>
6.5563416481

> <CNN_VS>
1.1956275702

> <CNNaffinity_variance>
0.0308238920

$$$$
