


 35 40  0  0  0  0  0  0  0  0999 V2000
   -5.9101   -5.4975  -22.8951 C   0  0  0  0  0  0  0  0  0  0  0  0
   -6.4265   -4.1548  -22.4700 C   0  0  0  0  0  0  0  0  0  0  0  0
   -5.5876   -3.5482  -21.3845 C   0  0  0  0  0  0  0  0  0  0  0  0
   -6.1803   -2.2166  -21.0301 N   0  0  0  0  0  0  0  0  0  0  0  0
   -7.3855   -2.0003  -21.8966 C   0  0  0  0  0  0  0  0  0  0  0  0
   -8.2812   -0.7973  -21.8766 O   0  0  0  0  0  0  0  0  0  0  0  0
   -7.5376   -3.1982  -22.7865 C   0  0  0  0  0  0  0  0  0  0  0  0
   -8.5882   -2.1476  -22.9926 C   0  0  0  0  0  0  0  0  0  0  0  0
   -9.6629   -2.3528  -24.0188 N   0  0  0  0  0  0  0  0  0  0  0  0
   -9.6869   -3.6086  -24.8388 C   0  0  0  0  0  0  0  0  0  0  0  0
  -10.7615   -3.8138  -25.8650 O   0  0  0  0  0  0  0  0  0  0  0  0
   -8.6363   -4.6592  -24.6327 C   0  0  0  0  0  0  0  0  0  0  0  0
   -8.6603   -5.9150  -25.4527 C   0  0  0  0  0  0  0  0  0  0  0  0
   -7.6097   -6.9655  -25.2465 C   0  0  0  0  0  0  0  0  0  0  0  0
   -6.5351   -6.7603  -24.2203 C   0  0  0  0  0  0  0  0  0  0  0  0
   -5.4844   -7.8109  -24.0142 F   0  0  0  0  0  0  0  0  0  0  0  0
   -6.5110   -5.5045  -23.4003 C   0  0  0  0  0  0  0  0  0  0  0  0
   -7.5616   -4.4540  -23.6065 C   0  0  0  0  0  0  0  0  0  0  0  0
   -5.6593   -1.2679  -19.9916 C   0  0  0  0  0  0  0  0  0  0  0  0
   -6.1383   -1.3709  -18.5740 C   0  0  0  0  0  0  0  0  0  0  0  0
   -5.6173   -0.4222  -17.5355 N   0  0  0  0  0  0  0  0  0  0  0  0
   -4.6173    0.6296  -17.9147 C   0  0  0  0  0  0  0  0  0  0  0  0
   -4.1383    0.7326  -19.3324 C   0  0  0  0  0  0  0  0  0  0  0  0
   -3.1382    1.7844  -19.7117 C   0  0  0  0  0  0  0  0  0  0  0  0
   -2.6593    1.8873  -21.1294 C   0  0  0  0  0  0  0  0  0  0  0  0
   -3.1803    0.9386  -22.1678 C   0  0  0  0  0  0  0  0  0  0  0  0
   -4.1803   -0.1131  -21.7886 C   0  0  0  0  0  0  0  0  0  0  0  0
   -4.6593   -0.2161  -20.3709 C   0  0  0  0  0  0  0  0  0  0  0  0
  -10.7135   -1.3022  -24.2250 C   0  0  0  0  0  0  0  0  0  0  0  0
  -12.0494   -1.4361  -23.5562 C   0  0  0  0  0  0  0  0  0  0  0  0
  -13.2077   -0.4946  -23.7040 C   0  0  0  0  0  0  0  0  0  0  0  0
  -14.3358   -1.0116  -22.8613 N   0  0  0  0  0  0  0  0  0  0  0  0
  -13.8747   -2.2727  -22.1926 N   0  0  0  0  0  0  0  0  0  0  0  0
  -12.4617   -2.5350  -22.6221 N   0  0  0  0  0  0  0  0  0  0  0  0
  -14.4062   -2.8303  -21.5796 H   0  0  0  0  0  0  0  0  0  0  0  0
  2  1  1  0  0  0
  2  3  1  0  0  0
  3  4  1  0  0  0
  4 19  1  0  0  0
 19 20  2  0  0  0
 20 21  1  0  0  0
 21 22  2  0  0  0
 22 23  1  0  0  0
 23 24  2  0  0  0
 24 25  1  0  0  0
 25 26  2  0  0  0
 26 27  1  0  0  0
 27 28  2  0  0  0
  4  5  1  0  0  0
  5  6  2  0  0  0
  5  7  1  0  0  0
  7  8  1  0  0  0
  8  9  1  0  0  0
  9 29  1  0  0  0
 29 30  1  0  0  0
 30 31  1  0  0  0
 31 32  2  0  0  0
 32 33  1  0  0  0
 33 34  1  0  0  0
  9 10  1  0  0  0
 10 11  2  0  0  0
 10 12  1  0  0  0
 12 13  2  0  0  0
 13 14  1  0  0  0
 14 15  2  0  0  0
 15 16  1  0  0  0
 15 17  1  0  0  0
 17 18  2  0  0  0
  7  2  1  0  0  0
 34 30  2  0  0  0
 18 12  1  0  0  0
 28 19  1  0  0  0
 18  7  1  0  0  0
 28 23  1  0  0  0
 33 35  1  0  0  0
M  END
> <minimizedAffinity>
-8.94722

> <CNNscore>
0.6049657464

> <CNNaffinity>
6.7024316788

> <CNN_VS>
4.0547413826

> <CNNaffinity_variance>
0.3145349622

$$$$



 35 40  0  0  0  0  0  0  0  0999 V2000
   -7.2846   -0.3061  -21.3333 C   0  0  0  0  0  0  0  0  0  0  0  0
   -8.5233   -0.3529  -22.1781 C   0  0  0  0  0  0  0  0  0  0  0  0
   -9.2548    0.9567  -22.1757 C   0  0  0  0  0  0  0  0  0  0  0  0
  -10.4703    0.8102  -23.0424 N   0  0  0  0  0  0  0  0  0  0  0  0
  -10.4899   -0.5898  -23.5804 C   0  0  0  0  0  0  0  0  0  0  0  0
  -11.5303   -1.1693  -24.4925 O   0  0  0  0  0  0  0  0  0  0  0  0
   -9.2867   -1.3087  -23.0463 C   0  0  0  0  0  0  0  0  0  0  0  0
  -10.1521   -2.1478  -23.9389 C   0  0  0  0  0  0  0  0  0  0  0  0
   -9.7779   -3.5723  -24.2230 N   0  0  0  0  0  0  0  0  0  0  0  0
   -8.5382   -4.1577  -23.6145 C   0  0  0  0  0  0  0  0  0  0  0  0
   -8.1640   -5.5822  -23.8986 O   0  0  0  0  0  0  0  0  0  0  0  0
   -7.6726   -3.3186  -22.7218 C   0  0  0  0  0  0  0  0  0  0  0  0
   -6.4329   -3.9041  -22.1133 C   0  0  0  0  0  0  0  0  0  0  0  0
   -5.5674   -3.0650  -21.2207 C   0  0  0  0  0  0  0  0  0  0  0  0
   -5.9417   -1.6405  -20.9366 C   0  0  0  0  0  0  0  0  0  0  0  0
   -5.0761   -0.8014  -20.0439 F   0  0  0  0  0  0  0  0  0  0  0  0
   -7.1814   -1.0550  -21.5451 C   0  0  0  0  0  0  0  0  0  0  0  0
   -8.0469   -1.8941  -22.4377 C   0  0  0  0  0  0  0  0  0  0  0  0
  -11.4875    1.8766  -23.3220 C   0  0  0  0  0  0  0  0  0  0  0  0
  -12.9216    1.6644  -22.9374 C   0  0  0  0  0  0  0  0  0  0  0  0
  -13.9388    2.7307  -23.2170 N   0  0  0  0  0  0  0  0  0  0  0  0
  -13.5218    4.0093  -23.8812 C   0  0  0  0  0  0  0  0  0  0  0  0
  -12.0875    4.2215  -24.2659 C   0  0  0  0  0  0  0  0  0  0  0  0
  -11.6705    5.5002  -24.9302 C   0  0  0  0  0  0  0  0  0  0  0  0
  -10.2362    5.7124  -25.3148 C   0  0  0  0  0  0  0  0  0  0  0  0
   -9.2191    4.6460  -25.0352 C   0  0  0  0  0  0  0  0  0  0  0  0
   -9.6362    3.3674  -24.3709 C   0  0  0  0  0  0  0  0  0  0  0  0
  -11.0703    3.1552  -23.9863 C   0  0  0  0  0  0  0  0  0  0  0  0
  -10.6435   -4.4113  -25.1157 C   0  0  0  0  0  0  0  0  0  0  0  0
  -10.0418   -5.1212  -26.2921 C   0  0  0  0  0  0  0  0  0  0  0  0
   -9.3541   -4.4718  -27.4563 C   0  0  0  0  0  0  0  0  0  0  0  0
   -8.9095   -5.5543  -28.3947 N   0  0  0  0  0  0  0  0  0  0  0  0
   -9.3225   -6.8728  -27.8104 N   0  0  0  0  0  0  0  0  0  0  0  0
  -10.0223   -6.6050  -26.5110 N   0  0  0  0  0  0  0  0  0  0  0  0
   -9.1623   -7.7583  -28.2097 H   0  0  0  0  0  0  0  0  0  0  0  0
  2  1  1  0  0  0
  2  3  1  0  0  0
  3  4  1  0  0  0
  4 19  1  0  0  0
 19 20  2  0  0  0
 20 21  1  0  0  0
 21 22  2  0  0  0
 22 23  1  0  0  0
 23 24  2  0  0  0
 24 25  1  0  0  0
 25 26  2  0  0  0
 26 27  1  0  0  0
 27 28  2  0  0  0
  4  5  1  0  0  0
  5  6  2  0  0  0
  5  7  1  0  0  0
  7  8  1  0  0  0
  8  9  1  0  0  0
  9 29  1  0  0  0
 29 30  1  0  0  0
 30 31  1  0  0  0
 31 32  2  0  0  0
 32 33  1  0  0  0
 33 34  1  0  0  0
  9 10  1  0  0  0
 10 11  2  0  0  0
 10 12  1  0  0  0
 12 13  2  0  0  0
 13 14  1  0  0  0
 14 15  2  0  0  0
 15 16  1  0  0  0
 15 17  1  0  0  0
 17 18  2  0  0  0
  7  2  1  0  0  0
 34 30  2  0  0  0
 18 12  1  0  0  0
 28 19  1  0  0  0
 18  7  1  0  0  0
 28 23  1  0  0  0
 33 35  1  0  0  0
M  END
> <minimizedAffinity>
-9.57906

> <CNNscore>
0.5916706324

> <CNNaffinity>
6.3773317337

> <CNN_VS>
3.7732799053

> <CNNaffinity_variance>
0.3288327754

$$$$



 35 40  0  0  0  0  0  0  0  0999 V2000
   -6.0874   -1.7862  -26.7479 C   0  0  0  0  0  0  0  0  0  0  0  0
   -6.7432   -1.3768  -25.4624 C   0  0  0  0  0  0  0  0  0  0  0  0
   -8.2021   -1.7249  -25.4402 C   0  0  0  0  0  0  0  0  0  0  0  0
   -8.7650   -1.2788  -24.1233 N   0  0  0  0  0  0  0  0  0  0  0  0
   -7.6540   -0.6551  -23.3317 C   0  0  0  0  0  0  0  0  0  0  0  0
   -7.7719   -0.0730  -21.9543 O   0  0  0  0  0  0  0  0  0  0  0  0
   -6.4045   -0.7156  -24.1593 C   0  0  0  0  0  0  0  0  0  0  0  0
   -6.2164   -0.0739  -22.8166 C   0  0  0  0  0  0  0  0  0  0  0  0
   -4.8654    0.4370  -22.4121 N   0  0  0  0  0  0  0  0  0  0  0  0
   -3.7023    0.3062  -23.3503 C   0  0  0  0  0  0  0  0  0  0  0  0
   -2.3513    0.8171  -22.9458 O   0  0  0  0  0  0  0  0  0  0  0  0
   -3.8903   -0.3356  -24.6930 C   0  0  0  0  0  0  0  0  0  0  0  0
   -2.7273   -0.4664  -25.6312 C   0  0  0  0  0  0  0  0  0  0  0  0
   -2.9153   -1.1082  -26.9738 C   0  0  0  0  0  0  0  0  0  0  0  0
   -4.2664   -1.6191  -27.3783 C   0  0  0  0  0  0  0  0  0  0  0  0
   -4.4544   -2.2608  -28.7211 F   0  0  0  0  0  0  0  0  0  0  0  0
   -5.4294   -1.4882  -26.4402 C   0  0  0  0  0  0  0  0  0  0  0  0
   -5.2414   -0.8465  -25.0975 C   0  0  0  0  0  0  0  0  0  0  0  0
  -10.1889   -1.4299  -23.6765 C   0  0  0  0  0  0  0  0  0  0  0  0
  -10.7036   -2.7738  -23.2535 C   0  0  0  0  0  0  0  0  0  0  0  0
  -12.1275   -2.9249  -22.8067 N   0  0  0  0  0  0  0  0  0  0  0  0
  -13.0367   -1.7321  -22.7828 C   0  0  0  0  0  0  0  0  0  0  0  0
  -12.5219   -0.3882  -23.2058 C   0  0  0  0  0  0  0  0  0  0  0  0
  -13.4312    0.8047  -23.1819 C   0  0  0  0  0  0  0  0  0  0  0  0
  -12.9163    2.1486  -23.6049 C   0  0  0  0  0  0  0  0  0  0  0  0
  -11.4925    2.2997  -24.0516 C   0  0  0  0  0  0  0  0  0  0  0  0
  -10.5833    1.1068  -24.0755 C   0  0  0  0  0  0  0  0  0  0  0  0
  -11.0980   -0.2370  -23.6526 C   0  0  0  0  0  0  0  0  0  0  0  0
   -4.6774    1.0788  -21.0694 C   0  0  0  0  0  0  0  0  0  0  0  0
   -4.9045    0.2821  -19.8189 C   0  0  0  0  0  0  0  0  0  0  0  0
   -5.4690   -1.1058  -19.7482 C   0  0  0  0  0  0  0  0  0  0  0  0
   -5.5204   -1.5123  -18.3052 N   0  0  0  0  0  0  0  0  0  0  0  0
   -4.9876   -0.3756  -17.4841 N   0  0  0  0  0  0  0  0  0  0  0  0
   -4.6069    0.7334  -18.4197 N   0  0  0  0  0  0  0  0  0  0  0  0
   -4.9026   -0.3601  -16.5034 H   0  0  0  0  0  0  0  0  0  0  0  0
  2  1  1  0  0  0
  2  3  1  0  0  0
  3  4  1  0  0  0
  4 19  1  0  0  0
 19 20  2  0  0  0
 20 21  1  0  0  0
 21 22  2  0  0  0
 22 23  1  0  0  0
 23 24  2  0  0  0
 24 25  1  0  0  0
 25 26  2  0  0  0
 26 27  1  0  0  0
 27 28  2  0  0  0
  4  5  1  0  0  0
  5  6  2  0  0  0
  5  7  1  0  0  0
  7  8  1  0  0  0
  8  9  1  0  0  0
  9 29  1  0  0  0
 29 30  1  0  0  0
 30 31  1  0  0  0
 31 32  2  0  0  0
 32 33  1  0  0  0
 33 34  1  0  0  0
  9 10  1  0  0  0
 10 11  2  0  0  0
 10 12  1  0  0  0
 12 13  2  0  0  0
 13 14  1  0  0  0
 14 15  2  0  0  0
 15 16  1  0  0  0
 15 17  1  0  0  0
 17 18  2  0  0  0
  7  2  1  0  0  0
 34 30  2  0  0  0
 18 12  1  0  0  0
 28 19  1  0  0  0
 18  7  1  0  0  0
 28 23  1  0  0  0
 33 35  1  0  0  0
M  END
> <minimizedAffinity>
-7.96306

> <CNNscore>
0.5026950836

> <CNNaffinity>
6.2996668816

> <CNN_VS>
3.1668114662

> <CNNaffinity_variance>
0.1938507855

$$$$



 35 40  0  0  0  0  0  0  0  0999 V2000
   -9.4969   -2.5596  -23.7358 C   0  0  0  0  0  0  0  0  0  0  0  0
   -8.2662   -2.7676  -22.9037 C   0  0  0  0  0  0  0  0  0  0  0  0
   -8.0279   -1.6275  -21.9584 C   0  0  0  0  0  0  0  0  0  0  0  0
   -6.7835   -1.9266  -21.1760 N   0  0  0  0  0  0  0  0  0  0  0  0
   -6.2529   -3.2515  -21.6377 C   0  0  0  0  0  0  0  0  0  0  0  0
   -5.0219   -3.9363  -21.1221 O   0  0  0  0  0  0  0  0  0  0  0  0
   -7.1692   -3.7712  -22.7055 C   0  0  0  0  0  0  0  0  0  0  0  0
   -6.0148   -4.6781  -22.3977 C   0  0  0  0  0  0  0  0  0  0  0  0
   -5.8612   -5.9740  -23.1374 N   0  0  0  0  0  0  0  0  0  0  0  0
   -6.8619   -6.3629  -24.1848 C   0  0  0  0  0  0  0  0  0  0  0  0
   -6.7083   -7.6588  -24.9245 O   0  0  0  0  0  0  0  0  0  0  0  0
   -8.0164   -5.4560  -24.4926 C   0  0  0  0  0  0  0  0  0  0  0  0
   -9.0172   -5.8450  -25.5400 C   0  0  0  0  0  0  0  0  0  0  0  0
  -10.1716   -4.9380  -25.8478 C   0  0  0  0  0  0  0  0  0  0  0  0
  -10.3253   -3.6422  -25.1081 C   0  0  0  0  0  0  0  0  0  0  0  0
  -11.4798   -2.7353  -25.4159 F   0  0  0  0  0  0  0  0  0  0  0  0
   -9.3245   -3.2532  -24.0607 C   0  0  0  0  0  0  0  0  0  0  0  0
   -8.1701   -4.1602  -23.7529 C   0  0  0  0  0  0  0  0  0  0  0  0
   -6.1764   -1.0540  -20.1177 C   0  0  0  0  0  0  0  0  0  0  0  0
   -6.7392   -1.0594  -18.7274 C   0  0  0  0  0  0  0  0  0  0  0  0
   -6.1321   -0.1868  -17.6691 N   0  0  0  0  0  0  0  0  0  0  0  0
   -4.9621    0.6911  -18.0012 C   0  0  0  0  0  0  0  0  0  0  0  0
   -4.3993    0.6965  -19.3916 C   0  0  0  0  0  0  0  0  0  0  0  0
   -3.2292    1.5745  -19.7236 C   0  0  0  0  0  0  0  0  0  0  0  0
   -2.6664    1.5798  -21.1141 C   0  0  0  0  0  0  0  0  0  0  0  0
   -3.2736    0.7072  -22.1723 C   0  0  0  0  0  0  0  0  0  0  0  0
   -4.4435   -0.1707  -21.8402 C   0  0  0  0  0  0  0  0  0  0  0  0
   -5.0064   -0.1761  -20.4499 C   0  0  0  0  0  0  0  0  0  0  0  0
   -4.7066   -6.8809  -22.8296 C   0  0  0  0  0  0  0  0  0  0  0  0
   -3.4334   -6.7669  -23.6144 C   0  0  0  0  0  0  0  0  0  0  0  0
   -3.3205   -6.3880  -25.0613 C   0  0  0  0  0  0  0  0  0  0  0  0
   -1.8668   -6.3987  -25.4312 N   0  0  0  0  0  0  0  0  0  0  0  0
   -1.0813   -6.7842  -24.2128 N   0  0  0  0  0  0  0  0  0  0  0  0
   -2.0495   -7.0118  -23.0900 N   0  0  0  0  0  0  0  0  0  0  0  0
   -0.1022   -6.8724  -24.1594 H   0  0  0  0  0  0  0  0  0  0  0  0
  2  1  1  0  0  0
  2  3  1  0  0  0
  3  4  1  0  0  0
  4 19  1  0  0  0
 19 20  2  0  0  0
 20 21  1  0  0  0
 21 22  2  0  0  0
 22 23  1  0  0  0
 23 24  2  0  0  0
 24 25  1  0  0  0
 25 26  2  0  0  0
 26 27  1  0  0  0
 27 28  2  0  0  0
  4  5  1  0  0  0
  5  6  2  0  0  0
  5  7  1  0  0  0
  7  8  1  0  0  0
  8  9  1  0  0  0
  9 29  1  0  0  0
 29 30  1  0  0  0
 30 31  1  0  0  0
 31 32  2  0  0  0
 32 33  1  0  0  0
 33 34  1  0  0  0
  9 10  1  0  0  0
 10 11  2  0  0  0
 10 12  1  0  0  0
 12 13  2  0  0  0
 13 14  1  0  0  0
 14 15  2  0  0  0
 15 16  1  0  0  0
 15 17  1  0  0  0
 17 18  2  0  0  0
  7  2  1  0  0  0
 34 30  2  0  0  0
 18 12  1  0  0  0
 28 19  1  0  0  0
 18  7  1  0  0  0
 28 23  1  0  0  0
 33 35  1  0  0  0
M  END
> <minimizedAffinity>
-8.39876

> <CNNscore>
0.4853706658

> <CNNaffinity>
6.4097380638

> <CNN_VS>
3.1110987663

> <CNNaffinity_variance>
0.0805997998

$$$$



 35 40  0  0  0  0  0  0  0  0999 V2000
   -5.7497    3.6598  -25.4151 C   0  0  0  0  0  0  0  0  0  0  0  0
   -6.5405    2.8896  -24.3994 C   0  0  0  0  0  0  0  0  0  0  0  0
   -7.9621    2.6846  -24.8318 C   0  0  0  0  0  0  0  0  0  0  0  0
   -8.6663    1.9101  -23.7575 N   0  0  0  0  0  0  0  0  0  0  0  0
   -7.6799    1.6364  -22.6611 C   0  0  0  0  0  0  0  0  0  0  0  0
   -7.9584    0.8886  -21.3909 O   0  0  0  0  0  0  0  0  0  0  0  0
   -6.3660    2.2418  -23.0578 C   0  0  0  0  0  0  0  0  0  0  0  0
   -6.3429    1.5530  -21.7255 C   0  0  0  0  0  0  0  0  0  0  0  0
   -5.0769    1.5169  -20.9218 N   0  0  0  0  0  0  0  0  0  0  0  0
   -3.8341    2.1696  -21.4503 C   0  0  0  0  0  0  0  0  0  0  0  0
   -2.5681    2.1335  -20.6465 O   0  0  0  0  0  0  0  0  0  0  0  0
   -3.8572    2.8585  -22.7826 C   0  0  0  0  0  0  0  0  0  0  0  0
   -2.6144    3.5112  -23.3111 C   0  0  0  0  0  0  0  0  0  0  0  0
   -2.6376    4.2000  -24.6433 C   0  0  0  0  0  0  0  0  0  0  0  0
   -3.9036    4.2361  -25.4471 C   0  0  0  0  0  0  0  0  0  0  0  0
   -3.9267    4.9250  -26.7794 F   0  0  0  0  0  0  0  0  0  0  0  0
   -5.1464    3.5834  -24.9186 C   0  0  0  0  0  0  0  0  0  0  0  0
   -5.1232    2.8946  -23.5863 C   0  0  0  0  0  0  0  0  0  0  0  0
  -10.1044    1.4840  -23.7762 C   0  0  0  0  0  0  0  0  0  0  0  0
  -10.4541    0.0259  -23.8151 C   0  0  0  0  0  0  0  0  0  0  0  0
  -11.8922   -0.4002  -23.8338 N   0  0  0  0  0  0  0  0  0  0  0  0
  -12.9805    0.6319  -23.8137 C   0  0  0  0  0  0  0  0  0  0  0  0
  -12.6307    2.0900  -23.7749 C   0  0  0  0  0  0  0  0  0  0  0  0
  -13.7191    3.1221  -23.7547 C   0  0  0  0  0  0  0  0  0  0  0  0
  -13.3692    4.5803  -23.7159 C   0  0  0  0  0  0  0  0  0  0  0  0
  -11.9312    5.0062  -23.6972 C   0  0  0  0  0  0  0  0  0  0  0  0
  -10.8429    3.9742  -23.7173 C   0  0  0  0  0  0  0  0  0  0  0  0
  -11.1926    2.5161  -23.7561 C   0  0  0  0  0  0  0  0  0  0  0  0
   -5.0538    0.8280  -19.5894 C   0  0  0  0  0  0  0  0  0  0  0  0
   -5.1984   -0.6630  -19.5134 C   0  0  0  0  0  0  0  0  0  0  0  0
   -5.0132   -1.6258  -20.6487 C   0  0  0  0  0  0  0  0  0  0  0  0
   -5.2540   -3.0109  -20.1257 N   0  0  0  0  0  0  0  0  0  0  0  0
   -5.5880   -2.9042  -18.6672 N   0  0  0  0  0  0  0  0  0  0  0  0
   -5.5537   -1.4531  -18.2889 N   0  0  0  0  0  0  0  0  0  0  0  0
   -5.7937   -3.6548  -18.0643 H   0  0  0  0  0  0  0  0  0  0  0  0
  2  1  1  0  0  0
  2  3  1  0  0  0
  3  4  1  0  0  0
  4 19  1  0  0  0
 19 20  2  0  0  0
 20 21  1  0  0  0
 21 22  2  0  0  0
 22 23  1  0  0  0
 23 24  2  0  0  0
 24 25  1  0  0  0
 25 26  2  0  0  0
 26 27  1  0  0  0
 27 28  2  0  0  0
  4  5  1  0  0  0
  5  6  2  0  0  0
  5  7  1  0  0  0
  7  8  1  0  0  0
  8  9  1  0  0  0
  9 29  1  0  0  0
 29 30  1  0  0  0
 30 31  1  0  0  0
 31 32  2  0  0  0
 32 33  1  0  0  0
 33 34  1  0  0  0
  9 10  1  0  0  0
 10 11  2  0  0  0
 10 12  1  0  0  0
 12 13  2  0  0  0
 13 14  1  0  0  0
 14 15  2  0  0  0
 15 16  1  0  0  0
 15 17  1  0  0  0
 17 18  2  0  0  0
  7  2  1  0  0  0
 34 30  2  0  0  0
 18 12  1  0  0  0
 28 19  1  0  0  0
 18  7  1  0  0  0
 28 23  1  0  0  0
 33 35  1  0  0  0
M  END
> <minimizedAffinity>
-8.25044

> <CNNscore>
0.4584211111

> <CNNaffinity>
6.0089097023

> <CNN_VS>
2.7546110153

> <CNNaffinity_variance>
0.2708790004

$$$$



 35 40  0  0  0  0  0  0  0  0999 V2000
   -6.1221    4.0834  -23.8683 C   0  0  0  0  0  0  0  0  0  0  0  0
   -6.8645    2.9606  -23.2064 C   0  0  0  0  0  0  0  0  0  0  0  0
   -8.2690    2.8368  -23.7182 C   0  0  0  0  0  0  0  0  0  0  0  0
   -8.9248    1.6944  -23.0007 N   0  0  0  0  0  0  0  0  0  0  0  0
   -7.9256    1.1121  -22.0455 C   0  0  0  0  0  0  0  0  0  0  0  0
   -8.1588   -0.0489  -21.1248 O   0  0  0  0  0  0  0  0  0  0  0  0
   -6.6522    1.8946  -22.1726 C   0  0  0  0  0  0  0  0  0  0  0  0
   -6.5883    0.7847  -21.1657 C   0  0  0  0  0  0  0  0  0  0  0  0
   -5.3245    0.5436  -20.3944 N   0  0  0  0  0  0  0  0  0  0  0  0
   -4.1247    1.4124  -20.6301 C   0  0  0  0  0  0  0  0  0  0  0  0
   -2.8610    1.1713  -19.8588 O   0  0  0  0  0  0  0  0  0  0  0  0
   -4.1886    2.5224  -21.6371 C   0  0  0  0  0  0  0  0  0  0  0  0
   -2.9888    3.3912  -21.8728 C   0  0  0  0  0  0  0  0  0  0  0  0
   -3.0527    4.5011  -22.8798 C   0  0  0  0  0  0  0  0  0  0  0  0
   -4.3165    4.7422  -23.6510 C   0  0  0  0  0  0  0  0  0  0  0  0
   -4.3804    5.8521  -24.6580 F   0  0  0  0  0  0  0  0  0  0  0  0
   -5.5163    3.8734  -23.4153 C   0  0  0  0  0  0  0  0  0  0  0  0
   -5.4523    2.7635  -22.4084 C   0  0  0  0  0  0  0  0  0  0  0  0
  -10.3327    1.2179  -23.2029 C   0  0  0  0  0  0  0  0  0  0  0  0
  -11.4784    2.1715  -23.0363 C   0  0  0  0  0  0  0  0  0  0  0  0
  -12.8863    1.6950  -23.2385 N   0  0  0  0  0  0  0  0  0  0  0  0
  -13.1483    0.2649  -23.6074 C   0  0  0  0  0  0  0  0  0  0  0  0
  -12.0025   -0.6887  -23.7740 C   0  0  0  0  0  0  0  0  0  0  0  0
  -12.2646   -2.1189  -24.1429 C   0  0  0  0  0  0  0  0  0  0  0  0
  -11.1188   -3.0724  -24.3096 C   0  0  0  0  0  0  0  0  0  0  0  0
   -9.7110   -2.5959  -24.1074 C   0  0  0  0  0  0  0  0  0  0  0  0
   -9.4489   -1.1658  -23.7385 C   0  0  0  0  0  0  0  0  0  0  0  0
  -10.5947   -0.2122  -23.5718 C   0  0  0  0  0  0  0  0  0  0  0  0
   -5.2606   -0.5664  -19.3874 C   0  0  0  0  0  0  0  0  0  0  0  0
   -5.3420   -1.9944  -19.8391 C   0  0  0  0  0  0  0  0  0  0  0  0
   -5.5378   -2.4629  -21.2505 C   0  0  0  0  0  0  0  0  0  0  0  0
   -5.5586   -3.9627  -21.2424 N   0  0  0  0  0  0  0  0  0  0  0  0
   -5.3756   -4.4212  -19.8259 N   0  0  0  0  0  0  0  0  0  0  0  0
   -5.2417   -3.2047  -18.9587 N   0  0  0  0  0  0  0  0  0  0  0  0
   -5.3482   -5.3563  -19.5193 H   0  0  0  0  0  0  0  0  0  0  0  0
  2  1  1  0  0  0
  2  3  1  0  0  0
  3  4  1  0  0  0
  4 19  1  0  0  0
 19 20  2  0  0  0
 20 21  1  0  0  0
 21 22  2  0  0  0
 22 23  1  0  0  0
 23 24  2  0  0  0
 24 25  1  0  0  0
 25 26  2  0  0  0
 26 27  1  0  0  0
 27 28  2  0  0  0
  4  5  1  0  0  0
  5  6  2  0  0  0
  5  7  1  0  0  0
  7  8  1  0  0  0
  8  9  1  0  0  0
  9 29  1  0  0  0
 29 30  1  0  0  0
 30 31  1  0  0  0
 31 32  2  0  0  0
 32 33  1  0  0  0
 33 34  1  0  0  0
  9 10  1  0  0  0
 10 11  2  0  0  0
 10 12  1  0  0  0
 12 13  2  0  0  0
 13 14  1  0  0  0
 14 15  2  0  0  0
 15 16  1  0  0  0
 15 17  1  0  0  0
 17 18  2  0  0  0
  7  2  1  0  0  0
 34 30  2  0  0  0
 18 12  1  0  0  0
 28 19  1  0  0  0
 18  7  1  0  0  0
 28 23  1  0  0  0
 33 35  1  0  0  0
M  END
> <minimizedAffinity>
-7.47324

> <CNNscore>
0.3747193515

> <CNNaffinity>
6.2031011581

> <CNN_VS>
2.3244221210

> <CNNaffinity_variance>
0.0228138808

$$$$



 35 40  0  0  0  0  0  0  0  0999 V2000
   -6.4201    1.9140  -23.7390 C   0  0  0  0  0  0  0  0  0  0  0  0
   -7.8440    1.4540  -23.8435 C   0  0  0  0  0  0  0  0  0  0  0  0
   -8.8125    2.5937  -23.7286 C   0  0  0  0  0  0  0  0  0  0  0  0
  -10.2002    2.0362  -23.8444 N   0  0  0  0  0  0  0  0  0  0  0  0
  -10.0893    0.5519  -24.0310 C   0  0  0  0  0  0  0  0  0  0  0  0
  -11.2338   -0.4046  -24.1902 O   0  0  0  0  0  0  0  0  0  0  0  0
   -8.6331    0.1922  -24.0305 C   0  0  0  0  0  0  0  0  0  0  0  0
   -9.5512   -0.9804  -24.2101 C   0  0  0  0  0  0  0  0  0  0  0  0
   -8.9837   -2.3598  -24.3687 N   0  0  0  0  0  0  0  0  0  0  0  0
   -7.4982   -2.5667  -24.3476 C   0  0  0  0  0  0  0  0  0  0  0  0
   -6.9308   -3.9462  -24.5062 O   0  0  0  0  0  0  0  0  0  0  0  0
   -6.5801   -1.3941  -24.1680 C   0  0  0  0  0  0  0  0  0  0  0  0
   -5.0946   -1.6010  -24.1469 C   0  0  0  0  0  0  0  0  0  0  0  0
   -4.1766   -0.4285  -23.9673 C   0  0  0  0  0  0  0  0  0  0  0  0
   -4.7441    0.9509  -23.8087 C   0  0  0  0  0  0  0  0  0  0  0  0
   -3.8259    2.1235  -23.6291 F   0  0  0  0  0  0  0  0  0  0  0  0
   -6.2295    1.1578  -23.8298 C   0  0  0  0  0  0  0  0  0  0  0  0
   -7.1476   -0.0147  -24.0094 C   0  0  0  0  0  0  0  0  0  0  0  0
  -11.4750    2.8244  -23.7843 C   0  0  0  0  0  0  0  0  0  0  0  0
  -12.4389    2.6066  -22.6559 C   0  0  0  0  0  0  0  0  0  0  0  0
  -13.7137    3.3948  -22.5958 N   0  0  0  0  0  0  0  0  0  0  0  0
  -14.0245    4.4009  -23.6640 C   0  0  0  0  0  0  0  0  0  0  0  0
  -13.0605    4.6188  -24.7924 C   0  0  0  0  0  0  0  0  0  0  0  0
  -13.3713    5.6249  -25.8607 C   0  0  0  0  0  0  0  0  0  0  0  0
  -12.4072    5.8427  -26.9891 C   0  0  0  0  0  0  0  0  0  0  0  0
  -11.1325    5.0544  -27.0492 C   0  0  0  0  0  0  0  0  0  0  0  0
  -10.8218    4.0483  -25.9809 C   0  0  0  0  0  0  0  0  0  0  0  0
  -11.7857    3.8305  -24.8526 C   0  0  0  0  0  0  0  0  0  0  0  0
   -9.9018   -3.5324  -24.5483 C   0  0  0  0  0  0  0  0  0  0  0  0
   -9.9010   -4.2946  -25.8402 C   0  0  0  0  0  0  0  0  0  0  0  0
   -9.3008   -3.8338  -27.1353 C   0  0  0  0  0  0  0  0  0  0  0  0
   -9.5291   -4.9057  -28.1594 N   0  0  0  0  0  0  0  0  0  0  0  0
  -10.2706   -6.0291  -27.4972 N   0  0  0  0  0  0  0  0  0  0  0  0
  -10.5004   -5.6513  -26.0639 N   0  0  0  0  0  0  0  0  0  0  0  0
  -10.5562   -6.8671  -27.9277 H   0  0  0  0  0  0  0  0  0  0  0  0
  2  1  1  0  0  0
  2  3  1  0  0  0
  3  4  1  0  0  0
  4 19  1  0  0  0
 19 20  2  0  0  0
 20 21  1  0  0  0
 21 22  2  0  0  0
 22 23  1  0  0  0
 23 24  2  0  0  0
 24 25  1  0  0  0
 25 26  2  0  0  0
 26 27  1  0  0  0
 27 28  2  0  0  0
  4  5  1  0  0  0
  5  6  2  0  0  0
  5  7  1  0  0  0
  7  8  1  0  0  0
  8  9  1  0  0  0
  9 29  1  0  0  0
 29 30  1  0  0  0
 30 31  1  0  0  0
 31 32  2  0  0  0
 32 33  1  0  0  0
 33 34  1  0  0  0
  9 10  1  0  0  0
 10 11  2  0  0  0
 10 12  1  0  0  0
 12 13  2  0  0  0
 13 14  1  0  0  0
 14 15  2  0  0  0
 15 16  1  0  0  0
 15 17  1  0  0  0
 17 18  2  0  0  0
  7  2  1  0  0  0
 34 30  2  0  0  0
 18 12  1  0  0  0
 28 19  1  0  0  0
 18  7  1  0  0  0
 28 23  1  0  0  0
 33 35  1  0  0  0
M  END
> <minimizedAffinity>
-7.50861

> <CNNscore>
0.3503005505

> <CNNaffinity>
6.0891556740

> <CNN_VS>
2.1330344677

> <CNNaffinity_variance>
0.1120143682

$$$$



 35 40  0  0  0  0  0  0  0  0999 V2000
  -10.8941   -2.4964  -24.4095 C   0  0  0  0  0  0  0  0  0  0  0  0
  -10.4723   -1.1715  -23.8463 C   0  0  0  0  0  0  0  0  0  0  0  0
  -11.5633   -0.1467  -23.9436 C   0  0  0  0  0  0  0  0  0  0  0  0
  -11.0486    1.1351  -23.3586 N   0  0  0  0  0  0  0  0  0  0  0  0
   -9.6396    0.9024  -22.9000 C   0  0  0  0  0  0  0  0  0  0  0  0
   -8.7440    1.9172  -22.2533 O   0  0  0  0  0  0  0  0  0  0  0  0
   -9.2833   -0.5232  -23.2014 C   0  0  0  0  0  0  0  0  0  0  0  0
   -8.1805    0.2563  -22.5487 C   0  0  0  0  0  0  0  0  0  0  0  0
   -6.8661   -0.4048  -22.2564 N   0  0  0  0  0  0  0  0  0  0  0  0
   -6.6546   -1.8453  -22.6168 C   0  0  0  0  0  0  0  0  0  0  0  0
   -5.3403   -2.5064  -22.3246 O   0  0  0  0  0  0  0  0  0  0  0  0
   -7.7575   -2.6249  -23.2695 C   0  0  0  0  0  0  0  0  0  0  0  0
   -7.5461   -4.0655  -23.6300 C   0  0  0  0  0  0  0  0  0  0  0  0
   -8.6489   -4.8450  -24.2826 C   0  0  0  0  0  0  0  0  0  0  0  0
   -9.9633   -4.1839  -24.5749 C   0  0  0  0  0  0  0  0  0  0  0  0
  -11.0662   -4.9635  -25.2276 F   0  0  0  0  0  0  0  0  0  0  0  0
  -10.1748   -2.7433  -24.2145 C   0  0  0  0  0  0  0  0  0  0  0  0
   -9.0719   -1.9638  -23.5618 C   0  0  0  0  0  0  0  0  0  0  0  0
  -11.8094    2.4234  -23.2513 C   0  0  0  0  0  0  0  0  0  0  0  0
  -12.9041    2.5655  -22.2358 C   0  0  0  0  0  0  0  0  0  0  0  0
  -13.6649    3.8537  -22.1284 N   0  0  0  0  0  0  0  0  0  0  0  0
  -13.3310    4.9999  -23.0366 C   0  0  0  0  0  0  0  0  0  0  0  0
  -12.2362    4.8577  -24.0521 C   0  0  0  0  0  0  0  0  0  0  0  0
  -11.9022    6.0040  -24.9603 C   0  0  0  0  0  0  0  0  0  0  0  0
  -10.8074    5.8618  -25.9758 C   0  0  0  0  0  0  0  0  0  0  0  0
  -10.0467    4.5735  -26.0831 C   0  0  0  0  0  0  0  0  0  0  0  0
  -10.3807    3.4274  -25.1750 C   0  0  0  0  0  0  0  0  0  0  0  0
  -11.4754    3.5695  -24.1595 C   0  0  0  0  0  0  0  0  0  0  0  0
   -5.7632    0.3748  -21.6037 C   0  0  0  0  0  0  0  0  0  0  0  0
   -5.5798    0.3131  -20.1163 C   0  0  0  0  0  0  0  0  0  0  0  0
   -6.3619   -0.5448  -19.1664 C   0  0  0  0  0  0  0  0  0  0  0  0
   -5.8475   -0.2897  -17.7806 N   0  0  0  0  0  0  0  0  0  0  0  0
   -4.7475    0.7258  -17.8741 N   0  0  0  0  0  0  0  0  0  0  0  0
   -4.5820    1.0983  -19.3176 N   0  0  0  0  0  0  0  0  0  0  0  0
   -4.2257    1.0848  -17.1203 H   0  0  0  0  0  0  0  0  0  0  0  0
  2  1  1  0  0  0
  2  3  1  0  0  0
  3  4  1  0  0  0
  4 19  1  0  0  0
 19 20  2  0  0  0
 20 21  1  0  0  0
 21 22  2  0  0  0
 22 23  1  0  0  0
 23 24  2  0  0  0
 24 25  1  0  0  0
 25 26  2  0  0  0
 26 27  1  0  0  0
 27 28  2  0  0  0
  4  5  1  0  0  0
  5  6  2  0  0  0
  5  7  1  0  0  0
  7  8  1  0  0  0
  8  9  1  0  0  0
  9 29  1  0  0  0
 29 30  1  0  0  0
 30 31  1  0  0  0
 31 32  2  0  0  0
 32 33  1  0  0  0
 33 34  1  0  0  0
  9 10  1  0  0  0
 10 11  2  0  0  0
 10 12  1  0  0  0
 12 13  2  0  0  0
 13 14  1  0  0  0
 14 15  2  0  0  0
 15 16  1  0  0  0
 15 17  1  0  0  0
 17 18  2  0  0  0
  7  2  1  0  0  0
 34 30  2  0  0  0
 18 12  1  0  0  0
 28 19  1  0  0  0
 18  7  1  0  0  0
 28 23  1  0  0  0
 33 35  1  0  0  0
M  END
> <minimizedAffinity>
-8.81115

> <CNNscore>
0.3469930887

> <CNNaffinity>
6.3397517204

> <CNN_VS>
2.1998500824

> <CNNaffinity_variance>
0.1334443539

$$$$



 35 40  0  0  0  0  0  0  0  0999 V2000
   -8.8357   -3.9378  -24.4975 C   0  0  0  0  0  0  0  0  0  0  0  0
   -8.9537   -2.6660  -23.7108 C   0  0  0  0  0  0  0  0  0  0  0  0
  -10.0236   -1.7662  -24.2545 C   0  0  0  0  0  0  0  0  0  0  0  0
  -10.0642   -0.5294  -23.4067 N   0  0  0  0  0  0  0  0  0  0  0  0
   -9.0193   -0.6649  -22.3390 C   0  0  0  0  0  0  0  0  0  0  0  0
   -8.7143    0.3432  -21.2710 O   0  0  0  0  0  0  0  0  0  0  0  0
   -8.3329   -1.9854  -22.5270 C   0  0  0  0  0  0  0  0  0  0  0  0
   -7.8121   -1.1864  -21.3692 C   0  0  0  0  0  0  0  0  0  0  0  0
   -6.7003   -1.7307  -20.5221 N   0  0  0  0  0  0  0  0  0  0  0  0
   -6.1093   -3.0739  -20.8327 C   0  0  0  0  0  0  0  0  0  0  0  0
   -4.9974   -3.6181  -19.9856 O   0  0  0  0  0  0  0  0  0  0  0  0
   -6.6301   -3.8729  -21.9905 C   0  0  0  0  0  0  0  0  0  0  0  0
   -6.0390   -5.2160  -22.3011 C   0  0  0  0  0  0  0  0  0  0  0  0
   -6.5598   -6.0150  -23.4589 C   0  0  0  0  0  0  0  0  0  0  0  0
   -7.6717   -5.4707  -24.3060 C   0  0  0  0  0  0  0  0  0  0  0  0
   -8.1925   -6.2697  -25.4638 F   0  0  0  0  0  0  0  0  0  0  0  0
   -8.2627   -4.1275  -23.9954 C   0  0  0  0  0  0  0  0  0  0  0  0
   -7.7419   -3.3286  -22.8376 C   0  0  0  0  0  0  0  0  0  0  0  0
  -10.9875    0.6378  -23.5937 C   0  0  0  0  0  0  0  0  0  0  0  0
  -12.4412    0.5070  -23.2482 C   0  0  0  0  0  0  0  0  0  0  0  0
  -13.3645    1.6743  -23.4352 N   0  0  0  0  0  0  0  0  0  0  0  0
  -12.8340    2.9724  -23.9677 C   0  0  0  0  0  0  0  0  0  0  0  0
  -11.3801    3.1032  -24.3132 C   0  0  0  0  0  0  0  0  0  0  0  0
  -10.8496    4.4013  -24.8457 C   0  0  0  0  0  0  0  0  0  0  0  0
   -9.3958    4.5320  -25.1912 C   0  0  0  0  0  0  0  0  0  0  0  0
   -8.4726    3.3647  -25.0042 C   0  0  0  0  0  0  0  0  0  0  0  0
   -9.0031    2.0667  -24.4717 C   0  0  0  0  0  0  0  0  0  0  0  0
  -10.4568    1.9359  -24.1262 C   0  0  0  0  0  0  0  0  0  0  0  0
   -6.1795   -0.9317  -19.3643 C   0  0  0  0  0  0  0  0  0  0  0  0
   -4.9994   -0.0246  -19.5494 C   0  0  0  0  0  0  0  0  0  0  0  0
   -4.1418    0.0671  -20.7767 C   0  0  0  0  0  0  0  0  0  0  0  0
   -3.0820    1.0985  -20.5256 N   0  0  0  0  0  0  0  0  0  0  0  0
   -3.2846    1.6443  -19.1432 N   0  0  0  0  0  0  0  0  0  0  0  0
   -4.4696    0.9502  -18.5399 N   0  0  0  0  0  0  0  0  0  0  0  0
   -2.7361    2.3366  -18.7082 H   0  0  0  0  0  0  0  0  0  0  0  0
  2  1  1  0  0  0
  2  3  1  0  0  0
  3  4  1  0  0  0
  4 19  1  0  0  0
 19 20  2  0  0  0
 20 21  1  0  0  0
 21 22  2  0  0  0
 22 23  1  0  0  0
 23 24  2  0  0  0
 24 25  1  0  0  0
 25 26  2  0  0  0
 26 27  1  0  0  0
 27 28  2  0  0  0
  4  5  1  0  0  0
  5  6  2  0  0  0
  5  7  1  0  0  0
  7  8  1  0  0  0
  8  9  1  0  0  0
  9 29  1  0  0  0
 29 30  1  0  0  0
 30 31  1  0  0  0
 31 32  2  0  0  0
 32 33  1  0  0  0
 33 34  1  0  0  0
  9 10  1  0  0  0
 10 11  2  0  0  0
 10 12  1  0  0  0
 12 13  2  0  0  0
 13 14  1  0  0  0
 14 15  2  0  0  0
 15 16  1  0  0  0
 15 17  1  0  0  0
 17 18  2  0  0  0
  7  2  1  0  0  0
 34 30  2  0  0  0
 18 12  1  0  0  0
 28 19  1  0  0  0
 18  7  1  0  0  0
 28 23  1  0  0  0
 33 35  1  0  0  0
M  END
> <minimizedAffinity>
-9.47896

> <CNNscore>
0.3464028239

> <CNNaffinity>
6.1384778023

> <CNN_VS>
2.1263859272

> <CNNaffinity_variance>
0.3005807996

$$$$
