


 43 48  0  0  0  0  0  0  0  0999 V2000
   -7.1200   -0.9367  -23.1685 N   0  0  0  0  0  0  0  0  0  0  0  0
   -7.5615    0.4855  -23.3487 C   0  0  0  0  0  0  0  0  0  0  0  0
   -9.0237    0.8167  -23.3954 C   0  0  0  0  0  0  0  0  0  0  0  0
  -10.4429    1.2978  -23.4608 C   0  0  0  0  0  0  0  0  0  0  0  0
  -11.5764    0.8630  -23.4102 O   0  0  0  0  0  0  0  0  0  0  0  0
  -10.4198    2.7859  -23.6477 N   0  0  0  0  0  0  0  0  0  0  0  0
   -8.9863    3.2246  -23.6978 C   0  0  0  0  0  0  0  0  0  0  0  0
   -8.1234    2.0076  -23.5419 C   0  0  0  0  0  0  0  0  0  0  0  0
  -10.0445   -0.2743  -23.2620 C   0  0  0  0  0  0  0  0  0  0  0  0
  -11.5067    0.0569  -23.3087 C   0  0  0  0  0  0  0  0  0  0  0  0
  -12.5274   -1.0341  -23.1753 C   0  0  0  0  0  0  0  0  0  0  0  0
  -13.9897   -0.7029  -23.2220 Cl  0  0  0  0  0  0  0  0  0  0  0  0
  -12.0859   -2.4563  -22.9951 C   0  0  0  0  0  0  0  0  0  0  0  0
  -10.6237   -2.7875  -22.9483 C   0  0  0  0  0  0  0  0  0  0  0  0
   -9.6030   -1.6965  -23.0818 C   0  0  0  0  0  0  0  0  0  0  0  0
   -8.1407   -2.0277  -23.0351 C   0  0  0  0  0  0  0  0  0  0  0  0
   -7.6992   -3.4498  -22.8549 O   0  0  0  0  0  0  0  0  0  0  0  0
  -11.6196    3.6786  -23.7640 C   0  0  0  0  0  0  0  0  0  0  0  0
  -12.5183    3.8853  -22.5809 C   0  0  0  0  0  0  0  0  0  0  0  0
  -13.7181    4.7780  -22.6973 N   0  0  0  0  0  0  0  0  0  0  0  0
  -14.0192    5.4640  -23.9967 C   0  0  0  0  0  0  0  0  0  0  0  0
  -13.1206    5.2574  -25.1798 C   0  0  0  0  0  0  0  0  0  0  0  0
  -13.4218    5.9435  -26.4794 C   0  0  0  0  0  0  0  0  0  0  0  0
  -12.5231    5.7367  -27.6624 C   0  0  0  0  0  0  0  0  0  0  0  0
  -11.3233    4.8440  -27.5461 C   0  0  0  0  0  0  0  0  0  0  0  0
  -11.0221    4.1580  -26.2466 C   0  0  0  0  0  0  0  0  0  0  0  0
  -11.9208    4.3647  -25.0635 C   0  0  0  0  0  0  0  0  0  0  0  0
   -5.6577   -1.2678  -23.1218 C   0  0  0  0  0  0  0  0  0  0  0  0
   -2.6678    0.3877  -25.1391 C   0  0  0  0  0  0  0  0  0  0  0  0
   -3.5631   -0.0081  -24.0026 N   0  0  0  0  0  0  0  0  0  0  0  0
   -4.7624   -0.8720  -24.2583 C   0  0  0  0  0  0  0  0  0  0  0  0
   -5.0664   -1.3401  -25.6507 O   0  0  0  0  0  0  0  0  0  0  0  0
   -3.3636    0.2991  -23.0888 H   0  0  0  0  0  0  0  0  0  0  0  0
   -6.6236    1.9853  -23.5338 C   0  0  0  0  0  0  0  0  0  0  0  0
   -5.8626    3.0083  -22.7438 N   0  0  0  0  0  0  0  0  0  0  0  0
   -5.9770    3.9663  -22.9394 H   0  0  0  0  0  0  0  0  0  0  0  0
   -4.9270    2.5716  -21.6556 C   0  0  0  0  0  0  0  0  0  0  0  0
   -3.5507    3.1616  -21.5683 C   0  0  0  0  0  0  0  0  0  0  0  0
   -2.6152    2.7250  -20.4802 C   0  0  0  0  0  0  0  0  0  0  0  0
   -3.0559    1.6984  -19.4792 N   0  0  0  0  0  0  0  0  0  0  0  0
   -4.4323    1.1084  -19.5665 C   0  0  0  0  0  0  0  0  0  0  0  0
   -4.8731    0.0819  -18.5656 C   0  0  0  0  0  0  0  0  0  0  0  0
   -5.3678    1.5451  -20.6547 N   0  0  0  0  0  0  0  0  0  0  0  0
 29 30  1  0  0  0
 30 31  1  0  0  0
 31 32  2  0  0  0
 31 28  1  0  0  0
 28  1  1  0  0  0
  1  2  1  0  0  0
  3  2  1  0  0  0
  3  4  1  0  0  0
  4  5  2  0  0  0
  4  6  1  0  0  0
  6 18  1  0  0  0
 18 19  2  0  0  0
 19 20  1  0  0  0
 20 21  2  0  0  0
 21 22  1  0  0  0
 22 23  2  0  0  0
 23 24  1  0  0  0
 24 25  2  0  0  0
 25 26  1  0  0  0
 26 27  2  0  0  0
  6  7  1  0  0  0
  7  8  1  0  0  0
  8 34  1  0  0  0
 34 35  1  0  0  0
 35 37  1  0  0  0
 37 38  2  0  0  0
 38 39  1  0  0  0
 39 40  2  0  0  0
 40 41  1  0  0  0
 41 42  1  0  0  0
 41 43  2  0  0  0
  3  9  1  0  0  0
  9 10  2  0  0  0
 10 11  1  0  0  0
 11 12  1  0  0  0
 11 13  2  0  0  0
 13 14  1  0  0  0
 14 15  2  0  0  0
 15 16  1  0  0  0
 16 17  2  0  0  0
 16  1  1  0  0  0
  8  3  1  0  0  0
 43 37  1  0  0  0
 15  9  1  0  0  0
 27 18  1  0  0  0
 27 22  1  0  0  0
 30 33  1  0  0  0
 35 36  1  0  0  0
M  END
> <minimizedAffinity>
-8.34600

> <CNNscore>
0.6494526863

> <CNNaffinity>
6.9551835060

> <CNN_VS>
4.5170626640

> <CNNaffinity_variance>
0.1963338554

$$$$



 43 48  0  0  0  0  0  0  0  0999 V2000
   -7.0186   -1.2999  -22.6527 N   0  0  0  0  0  0  0  0  0  0  0  0
   -7.1288    0.0321  -23.3337 C   0  0  0  0  0  0  0  0  0  0  0  0
   -8.4717    0.5493  -23.7567 C   0  0  0  0  0  0  0  0  0  0  0  0
   -9.7395    1.1933  -24.2341 C   0  0  0  0  0  0  0  0  0  0  0  0
  -10.9350    0.9793  -24.2727 O   0  0  0  0  0  0  0  0  0  0  0  0
   -9.3848    2.5132  -24.8524 N   0  0  0  0  0  0  0  0  0  0  0  0
   -7.8977    2.6849  -24.7571 C   0  0  0  0  0  0  0  0  0  0  0  0
   -7.3334    1.4712  -24.0799 C   0  0  0  0  0  0  0  0  0  0  0  0
   -9.7045   -0.2654  -23.4988 C   0  0  0  0  0  0  0  0  0  0  0  0
  -11.0474    0.2519  -23.9218 C   0  0  0  0  0  0  0  0  0  0  0  0
  -12.2802   -0.5628  -23.6639 C   0  0  0  0  0  0  0  0  0  0  0  0
  -13.6232   -0.0456  -24.0869 Cl  0  0  0  0  0  0  0  0  0  0  0  0
  -12.1700   -1.8948  -22.9829 C   0  0  0  0  0  0  0  0  0  0  0  0
  -10.8271   -2.4120  -22.5598 C   0  0  0  0  0  0  0  0  0  0  0  0
   -9.5944   -1.5973  -22.8178 C   0  0  0  0  0  0  0  0  0  0  0  0
   -8.2514   -2.1146  -22.3947 C   0  0  0  0  0  0  0  0  0  0  0  0
   -8.1412   -3.4465  -21.7137 O   0  0  0  0  0  0  0  0  0  0  0  0
  -10.3480    3.4898  -25.4593 C   0  0  0  0  0  0  0  0  0  0  0  0
  -10.2470    3.8366  -26.9152 C   0  0  0  0  0  0  0  0  0  0  0  0
  -11.2102    4.8132  -27.5221 N   0  0  0  0  0  0  0  0  0  0  0  0
  -12.2745    5.4430  -26.6732 C   0  0  0  0  0  0  0  0  0  0  0  0
  -12.3756    5.0961  -25.2174 C   0  0  0  0  0  0  0  0  0  0  0  0
  -13.4400    5.7259  -24.3685 C   0  0  0  0  0  0  0  0  0  0  0  0
  -13.5410    5.3790  -22.9126 C   0  0  0  0  0  0  0  0  0  0  0  0
  -12.5777    4.4024  -22.3057 C   0  0  0  0  0  0  0  0  0  0  0  0
  -11.5134    3.7726  -23.1546 C   0  0  0  0  0  0  0  0  0  0  0  0
  -11.4124    4.1195  -24.6104 C   0  0  0  0  0  0  0  0  0  0  0  0
   -5.6756   -1.8171  -22.2296 C   0  0  0  0  0  0  0  0  0  0  0  0
   -5.5272   -5.7659  -21.8627 C   0  0  0  0  0  0  0  0  0  0  0  0
   -5.6462   -4.4031  -22.4779 N   0  0  0  0  0  0  0  0  0  0  0  0
   -5.5566   -3.1799  -21.6144 C   0  0  0  0  0  0  0  0  0  0  0  0
   -5.3480   -3.3195  -20.1355 O   0  0  0  0  0  0  0  0  0  0  0  0
   -5.7832   -4.3115  -23.4485 H   0  0  0  0  0  0  0  0  0  0  0  0
   -5.8851    1.2230  -23.7789 C   0  0  0  0  0  0  0  0  0  0  0  0
   -5.0149    2.3474  -23.3010 N   0  0  0  0  0  0  0  0  0  0  0  0
   -4.8954    3.1490  -23.8599 H   0  0  0  0  0  0  0  0  0  0  0  0
   -4.3267    2.2505  -21.9717 C   0  0  0  0  0  0  0  0  0  0  0  0
   -3.0834    3.0481  -21.7109 C   0  0  0  0  0  0  0  0  0  0  0  0
   -2.3952    2.9512  -20.3817 C   0  0  0  0  0  0  0  0  0  0  0  0
   -2.9503    2.0566  -19.3132 N   0  0  0  0  0  0  0  0  0  0  0  0
   -4.1936    1.2590  -19.5740 C   0  0  0  0  0  0  0  0  0  0  0  0
   -4.7486    0.3645  -18.5055 C   0  0  0  0  0  0  0  0  0  0  0  0
   -4.8818    1.3559  -20.9032 N   0  0  0  0  0  0  0  0  0  0  0  0
 29 30  1  0  0  0
 30 31  1  0  0  0
 31 32  2  0  0  0
 31 28  1  0  0  0
 28  1  1  0  0  0
  1  2  1  0  0  0
  3  2  1  0  0  0
  3  4  1  0  0  0
  4  5  2  0  0  0
  4  6  1  0  0  0
  6 18  1  0  0  0
 18 19  2  0  0  0
 19 20  1  0  0  0
 20 21  2  0  0  0
 21 22  1  0  0  0
 22 23  2  0  0  0
 23 24  1  0  0  0
 24 25  2  0  0  0
 25 26  1  0  0  0
 26 27  2  0  0  0
  6  7  1  0  0  0
  7  8  1  0  0  0
  8 34  1  0  0  0
 34 35  1  0  0  0
 35 37  1  0  0  0
 37 38  2  0  0  0
 38 39  1  0  0  0
 39 40  2  0  0  0
 40 41  1  0  0  0
 41 42  1  0  0  0
 41 43  2  0  0  0
  3  9  1  0  0  0
  9 10  2  0  0  0
 10 11  1  0  0  0
 11 12  1  0  0  0
 11 13  2  0  0  0
 13 14  1  0  0  0
 14 15  2  0  0  0
 15 16  1  0  0  0
 16 17  2  0  0  0
 16  1  1  0  0  0
  8  3  1  0  0  0
 43 37  1  0  0  0
 15  9  1  0  0  0
 27 18  1  0  0  0
 27 22  1  0  0  0
 30 33  1  0  0  0
 35 36  1  0  0  0
M  END
> <minimizedAffinity>
-8.38237

> <CNNscore>
0.4318129420

> <CNNaffinity>
6.8856110573

> <CNN_VS>
2.9732959270

> <CNNaffinity_variance>
0.0742817000

$$$$



 43 48  0  0  0  0  0  0  0  0999 V2000
   -7.3438   -1.3281  -22.9119 N   0  0  0  0  0  0  0  0  0  0  0  0
   -7.5128    0.1141  -23.2882 C   0  0  0  0  0  0  0  0  0  0  0  0
   -8.8875    0.6846  -23.4740 C   0  0  0  0  0  0  0  0  0  0  0  0
  -10.1921    1.3916  -23.6930 C   0  0  0  0  0  0  0  0  0  0  0  0
  -11.3865    1.1697  -23.6696 O   0  0  0  0  0  0  0  0  0  0  0  0
   -9.8925    2.8170  -24.0517 N   0  0  0  0  0  0  0  0  0  0  0  0
   -8.4026    2.9909  -24.0544 C   0  0  0  0  0  0  0  0  0  0  0  0
   -7.7815    1.6730  -23.6973 C   0  0  0  0  0  0  0  0  0  0  0  0
  -10.0933   -0.1871  -23.2836 C   0  0  0  0  0  0  0  0  0  0  0  0
  -11.4681    0.3834  -23.4694 C   0  0  0  0  0  0  0  0  0  0  0  0
  -12.6738   -0.4882  -23.2790 C   0  0  0  0  0  0  0  0  0  0  0  0
  -14.0487    0.0823  -23.4648 Cl  0  0  0  0  0  0  0  0  0  0  0  0
  -12.5048   -1.9304  -22.9027 C   0  0  0  0  0  0  0  0  0  0  0  0
  -11.1301   -2.5009  -22.7169 C   0  0  0  0  0  0  0  0  0  0  0  0
   -9.9244   -1.6293  -22.9073 C   0  0  0  0  0  0  0  0  0  0  0  0
   -8.5495   -2.1997  -22.7215 C   0  0  0  0  0  0  0  0  0  0  0  0
   -8.3805   -3.6419  -22.3452 O   0  0  0  0  0  0  0  0  0  0  0  0
  -10.9049    3.8815  -24.3545 C   0  0  0  0  0  0  0  0  0  0  0  0
  -11.7467    4.4515  -23.2516 C   0  0  0  0  0  0  0  0  0  0  0  0
  -12.7592    5.5160  -23.5544 N   0  0  0  0  0  0  0  0  0  0  0  0
  -12.9299    6.0105  -24.9602 C   0  0  0  0  0  0  0  0  0  0  0  0
  -12.0881    5.4405  -26.0632 C   0  0  0  0  0  0  0  0  0  0  0  0
  -12.2589    5.9350  -27.4691 C   0  0  0  0  0  0  0  0  0  0  0  0
  -11.4171    5.3649  -28.5720 C   0  0  0  0  0  0  0  0  0  0  0  0
  -10.4046    4.3004  -28.2691 C   0  0  0  0  0  0  0  0  0  0  0  0
  -10.2339    3.8059  -26.8633 C   0  0  0  0  0  0  0  0  0  0  0  0
  -11.0757    4.3760  -25.7604 C   0  0  0  0  0  0  0  0  0  0  0  0
   -5.9689   -1.8986  -22.7261 C   0  0  0  0  0  0  0  0  0  0  0  0
   -5.5132   -5.6453  -21.4995 C   0  0  0  0  0  0  0  0  0  0  0  0
   -5.7195   -4.4641  -22.4007 N   0  0  0  0  0  0  0  0  0  0  0  0
   -5.7626   -3.0797  -21.8248 C   0  0  0  0  0  0  0  0  0  0  0  0
   -5.5993   -2.8765  -20.3476 O   0  0  0  0  0  0  0  0  0  0  0  0
   -5.8267   -4.5974  -23.3703 H   0  0  0  0  0  0  0  0  0  0  0  0
   -6.3123    1.3927  -23.5836 C   0  0  0  0  0  0  0  0  0  0  0  0
   -5.3803    2.4620  -23.0959 N   0  0  0  0  0  0  0  0  0  0  0  0
   -5.2760    3.2956  -23.6091 H   0  0  0  0  0  0  0  0  0  0  0  0
   -4.6073    2.2612  -21.8262 C   0  0  0  0  0  0  0  0  0  0  0  0
   -3.3250    3.0069  -21.6030 C   0  0  0  0  0  0  0  0  0  0  0  0
   -2.5520    2.8062  -20.3334 C   0  0  0  0  0  0  0  0  0  0  0  0
   -3.0611    1.8597  -19.2868 N   0  0  0  0  0  0  0  0  0  0  0  0
   -4.3433    1.1141  -19.5101 C   0  0  0  0  0  0  0  0  0  0  0  0
   -4.8525    0.1676  -18.4637 C   0  0  0  0  0  0  0  0  0  0  0  0
   -5.1164    1.3148  -20.7798 N   0  0  0  0  0  0  0  0  0  0  0  0
 29 30  1  0  0  0
 30 31  1  0  0  0
 31 32  2  0  0  0
 31 28  1  0  0  0
 28  1  1  0  0  0
  1  2  1  0  0  0
  3  2  1  0  0  0
  3  4  1  0  0  0
  4  5  2  0  0  0
  4  6  1  0  0  0
  6 18  1  0  0  0
 18 19  2  0  0  0
 19 20  1  0  0  0
 20 21  2  0  0  0
 21 22  1  0  0  0
 22 23  2  0  0  0
 23 24  1  0  0  0
 24 25  2  0  0  0
 25 26  1  0  0  0
 26 27  2  0  0  0
  6  7  1  0  0  0
  7  8  1  0  0  0
  8 34  1  0  0  0
 34 35  1  0  0  0
 35 37  1  0  0  0
 37 38  2  0  0  0
 38 39  1  0  0  0
 39 40  2  0  0  0
 40 41  1  0  0  0
 41 42  1  0  0  0
 41 43  2  0  0  0
  3  9  1  0  0  0
  9 10  2  0  0  0
 10 11  1  0  0  0
 11 12  1  0  0  0
 11 13  2  0  0  0
 13 14  1  0  0  0
 14 15  2  0  0  0
 15 16  1  0  0  0
 16 17  2  0  0  0
 16  1  1  0  0  0
  8  3  1  0  0  0
 43 37  1  0  0  0
 15  9  1  0  0  0
 27 18  1  0  0  0
 27 22  1  0  0  0
 30 33  1  0  0  0
 35 36  1  0  0  0
M  END
> <minimizedAffinity>
-8.36773

> <CNNscore>
0.3767458200

> <CNNaffinity>
6.8211646080

> <CNN_VS>
2.5698451996

> <CNNaffinity_variance>
0.0800772160

$$$$



 43 48  0  0  0  0  0  0  0  0999 V2000
   -7.5593   -2.0274  -23.0192 N   0  0  0  0  0  0  0  0  0  0  0  0
   -7.5065   -0.6463  -23.6022 C   0  0  0  0  0  0  0  0  0  0  0  0
   -8.7772    0.1066  -23.8634 C   0  0  0  0  0  0  0  0  0  0  0  0
   -9.9580    0.9766  -24.1779 C   0  0  0  0  0  0  0  0  0  0  0  0
  -11.1713    0.9568  -24.1167 O   0  0  0  0  0  0  0  0  0  0  0  0
   -9.4449    2.2678  -24.7431 N   0  0  0  0  0  0  0  0  0  0  0  0
   -7.9470    2.1958  -24.7780 C   0  0  0  0  0  0  0  0  0  0  0  0
   -7.5344    0.8601  -24.2344 C   0  0  0  0  0  0  0  0  0  0  0  0
  -10.1009   -0.5216  -23.5417 C   0  0  0  0  0  0  0  0  0  0  0  0
  -11.3716    0.2313  -23.8030 C   0  0  0  0  0  0  0  0  0  0  0  0
  -12.6952   -0.3968  -23.4812 C   0  0  0  0  0  0  0  0  0  0  0  0
  -13.9660    0.3561  -23.7425 Cl  0  0  0  0  0  0  0  0  0  0  0  0
  -12.7480   -1.7779  -22.8982 C   0  0  0  0  0  0  0  0  0  0  0  0
  -11.4773   -2.5308  -22.6370 C   0  0  0  0  0  0  0  0  0  0  0  0
  -10.1537   -1.9026  -22.9587 C   0  0  0  0  0  0  0  0  0  0  0  0
   -8.8829   -2.6555  -22.6974 C   0  0  0  0  0  0  0  0  0  0  0  0
   -8.9357   -4.0366  -22.1144 O   0  0  0  0  0  0  0  0  0  0  0  0
  -10.2826    3.4275  -25.1943 C   0  0  0  0  0  0  0  0  0  0  0  0
  -10.0458    4.0449  -26.5406 C   0  0  0  0  0  0  0  0  0  0  0  0
  -10.8835    5.2045  -26.9918 N   0  0  0  0  0  0  0  0  0  0  0  0
  -11.9580    5.7467  -26.0965 C   0  0  0  0  0  0  0  0  0  0  0  0
  -12.1948    5.1292  -24.7501 C   0  0  0  0  0  0  0  0  0  0  0  0
  -13.2694    5.6714  -23.8549 C   0  0  0  0  0  0  0  0  0  0  0  0
  -13.5061    5.0539  -22.5085 C   0  0  0  0  0  0  0  0  0  0  0  0
  -12.6684    3.8943  -22.0574 C   0  0  0  0  0  0  0  0  0  0  0  0
  -11.5939    3.3522  -22.9526 C   0  0  0  0  0  0  0  0  0  0  0  0
  -11.3571    3.9696  -24.2990 C   0  0  0  0  0  0  0  0  0  0  0  0
   -6.2885   -2.7803  -22.7579 C   0  0  0  0  0  0  0  0  0  0  0  0
   -5.1282   -6.5372  -23.2961 C   0  0  0  0  0  0  0  0  0  0  0  0
   -5.3557   -5.2027  -22.6499 N   0  0  0  0  0  0  0  0  0  0  0  0
   -6.0610   -4.1147  -23.4041 C   0  0  0  0  0  0  0  0  0  0  0  0
   -6.5388   -4.3611  -24.8045 O   0  0  0  0  0  0  0  0  0  0  0  0
   -5.0421   -5.0410  -21.7308 H   0  0  0  0  0  0  0  0  0  0  0  0
   -6.1262    0.3648  -24.0874 C   0  0  0  0  0  0  0  0  0  0  0  0
   -5.0288    1.3210  -23.7249 N   0  0  0  0  0  0  0  0  0  0  0  0
   -4.6177    1.8847  -24.4194 H   0  0  0  0  0  0  0  0  0  0  0  0
   -4.5578    1.4183  -22.3041 C   0  0  0  0  0  0  0  0  0  0  0  0
   -3.4920    2.4065  -21.9333 C   0  0  0  0  0  0  0  0  0  0  0  0
   -3.0210    2.5039  -20.5126 C   0  0  0  0  0  0  0  0  0  0  0  0
   -3.6157    1.6129  -19.4625 N   0  0  0  0  0  0  0  0  0  0  0  0
   -4.6815    0.6247  -19.8333 C   0  0  0  0  0  0  0  0  0  0  0  0
   -5.2762   -0.2662  -18.7832 C   0  0  0  0  0  0  0  0  0  0  0  0
   -5.1525    0.5274  -21.2540 N   0  0  0  0  0  0  0  0  0  0  0  0
 29 30  1  0  0  0
 30 31  1  0  0  0
 31 32  2  0  0  0
 31 28  1  0  0  0
 28  1  1  0  0  0
  1  2  1  0  0  0
  3  2  1  0  0  0
  3  4  1  0  0  0
  4  5  2  0  0  0
  4  6  1  0  0  0
  6 18  1  0  0  0
 18 19  2  0  0  0
 19 20  1  0  0  0
 20 21  2  0  0  0
 21 22  1  0  0  0
 22 23  2  0  0  0
 23 24  1  0  0  0
 24 25  2  0  0  0
 25 26  1  0  0  0
 26 27  2  0  0  0
  6  7  1  0  0  0
  7  8  1  0  0  0
  8 34  1  0  0  0
 34 35  1  0  0  0
 35 37  1  0  0  0
 37 38  2  0  0  0
 38 39  1  0  0  0
 39 40  2  0  0  0
 40 41  1  0  0  0
 41 42  1  0  0  0
 41 43  2  0  0  0
  3  9  1  0  0  0
  9 10  2  0  0  0
 10 11  1  0  0  0
 11 12  1  0  0  0
 11 13  2  0  0  0
 13 14  1  0  0  0
 14 15  2  0  0  0
 15 16  1  0  0  0
 16 17  2  0  0  0
 16  1  1  0  0  0
  8  3  1  0  0  0
 43 37  1  0  0  0
 15  9  1  0  0  0
 27 18  1  0  0  0
 27 22  1  0  0  0
 30 33  1  0  0  0
 35 36  1  0  0  0
M  END
> <minimizedAffinity>
-7.53326

> <CNNscore>
0.3244940937

> <CNNaffinity>
6.8856124878

> <CNN_VS>
2.2343406677

> <CNNaffinity_variance>
0.2049060613

$$$$



 43 48  0  0  0  0  0  0  0  0999 V2000
  -10.8758    3.6378  -24.0096 N   0  0  0  0  0  0  0  0  0  0  0  0
   -9.5902    2.8654  -23.9806 C   0  0  0  0  0  0  0  0  0  0  0  0
   -9.6112    1.3822  -23.7581 C   0  0  0  0  0  0  0  0  0  0  0  0
   -9.4756   -0.0966  -23.5468 C   0  0  0  0  0  0  0  0  0  0  0  0
  -10.1676   -1.0767  -23.3544 O   0  0  0  0  0  0  0  0  0  0  0  0
   -8.0161   -0.4397  -23.5935 N   0  0  0  0  0  0  0  0  0  0  0  0
   -7.2497    0.8271  -23.8336 C   0  0  0  0  0  0  0  0  0  0  0  0
   -8.2355    1.9531  -23.9354 C   0  0  0  0  0  0  0  0  0  0  0  0
  -10.9178    0.6712  -23.5646 C   0  0  0  0  0  0  0  0  0  0  0  0
  -10.9388   -0.8120  -23.3422 C   0  0  0  0  0  0  0  0  0  0  0  0
  -12.2454   -1.5229  -23.1487 C   0  0  0  0  0  0  0  0  0  0  0  0
  -12.2664   -3.0062  -22.9262 Cl  0  0  0  0  0  0  0  0  0  0  0  0
  -13.5309   -0.7506  -23.1776 C   0  0  0  0  0  0  0  0  0  0  0  0
  -13.5099    0.7327  -23.4001 C   0  0  0  0  0  0  0  0  0  0  0  0
  -12.2034    1.4436  -23.5936 C   0  0  0  0  0  0  0  0  0  0  0  0
  -12.1823    2.9269  -23.8161 C   0  0  0  0  0  0  0  0  0  0  0  0
  -13.4679    3.6992  -23.8451 O   0  0  0  0  0  0  0  0  0  0  0  0
   -7.4267   -1.8092  -23.4289 C   0  0  0  0  0  0  0  0  0  0  0  0
   -6.8267   -2.2145  -22.1152 C   0  0  0  0  0  0  0  0  0  0  0  0
   -6.2372   -3.5840  -21.9506 N   0  0  0  0  0  0  0  0  0  0  0  0
   -6.2477   -4.5481  -23.0996 C   0  0  0  0  0  0  0  0  0  0  0  0
   -6.8477   -4.1427  -24.4133 C   0  0  0  0  0  0  0  0  0  0  0  0
   -6.8582   -5.1069  -25.5624 C   0  0  0  0  0  0  0  0  0  0  0  0
   -7.4582   -4.7015  -26.8760 C   0  0  0  0  0  0  0  0  0  0  0  0
   -8.0477   -3.3320  -27.0406 C   0  0  0  0  0  0  0  0  0  0  0  0
   -8.0372   -2.3679  -25.8916 C   0  0  0  0  0  0  0  0  0  0  0  0
   -7.4372   -2.7733  -24.5779 C   0  0  0  0  0  0  0  0  0  0  0  0
  -10.8547    5.1211  -24.2321 C   0  0  0  0  0  0  0  0  0  0  0  0
  -13.5192    6.6568  -26.7404 C   0  0  0  0  0  0  0  0  0  0  0  0
  -12.9131    6.0763  -25.4972 N   0  0  0  0  0  0  0  0  0  0  0  0
  -11.4608    5.7016  -25.4753 C   0  0  0  0  0  0  0  0  0  0  0  0
  -10.6146    5.9076  -26.6966 O   0  0  0  0  0  0  0  0  0  0  0  0
  -13.4685    5.9411  -24.6956 H   0  0  0  0  0  0  0  0  0  0  0  0
   -7.9037    3.3965  -24.1728 C   0  0  0  0  0  0  0  0  0  0  0  0
   -7.0730    4.1489  -23.1760 N   0  0  0  0  0  0  0  0  0  0  0  0
   -7.4562    4.9191  -22.6972 H   0  0  0  0  0  0  0  0  0  0  0  0
   -5.6583    3.7280  -22.9087 C   0  0  0  0  0  0  0  0  0  0  0  0
   -4.5703    4.0999  -23.8721 C   0  0  0  0  0  0  0  0  0  0  0  0
   -3.1557    3.6790  -23.6048 C   0  0  0  0  0  0  0  0  0  0  0  0
   -2.8288    2.8862  -22.3740 N   0  0  0  0  0  0  0  0  0  0  0  0
   -3.9168    2.5144  -21.4106 C   0  0  0  0  0  0  0  0  0  0  0  0
   -3.5900    1.7216  -20.1799 C   0  0  0  0  0  0  0  0  0  0  0  0
   -5.3315    2.9353  -21.6780 N   0  0  0  0  0  0  0  0  0  0  0  0
 29 30  1  0  0  0
 30 31  1  0  0  0
 31 32  2  0  0  0
 31 28  1  0  0  0
 28  1  1  0  0  0
  1  2  1  0  0  0
  3  2  1  0  0  0
  3  4  1  0  0  0
  4  5  2  0  0  0
  4  6  1  0  0  0
  6 18  1  0  0  0
 18 19  2  0  0  0
 19 20  1  0  0  0
 20 21  2  0  0  0
 21 22  1  0  0  0
 22 23  2  0  0  0
 23 24  1  0  0  0
 24 25  2  0  0  0
 25 26  1  0  0  0
 26 27  2  0  0  0
  6  7  1  0  0  0
  7  8  1  0  0  0
  8 34  1  0  0  0
 34 35  1  0  0  0
 35 37  1  0  0  0
 37 38  2  0  0  0
 38 39  1  0  0  0
 39 40  2  0  0  0
 40 41  1  0  0  0
 41 42  1  0  0  0
 41 43  2  0  0  0
  3  9  1  0  0  0
  9 10  2  0  0  0
 10 11  1  0  0  0
 11 12  1  0  0  0
 11 13  2  0  0  0
 13 14  1  0  0  0
 14 15  2  0  0  0
 15 16  1  0  0  0
 16 17  2  0  0  0
 16  1  1  0  0  0
  8  3  1  0  0  0
 43 37  1  0  0  0
 15  9  1  0  0  0
 27 18  1  0  0  0
 27 22  1  0  0  0
 30 33  1  0  0  0
 35 36  1  0  0  0
M  END
> <minimizedAffinity>
-7.49395

> <CNNscore>
0.2580595315

> <CNNaffinity>
6.6776189804

> <CNN_VS>
1.7232232094

> <CNNaffinity_variance>
0.2941194475

$$$$



 43 48  0  0  0  0  0  0  0  0999 V2000
   -6.8345   -0.9902  -22.3808 N   0  0  0  0  0  0  0  0  0  0  0  0
   -6.9952    0.3406  -23.0540 C   0  0  0  0  0  0  0  0  0  0  0  0
   -8.3360    0.7567  -23.5824 C   0  0  0  0  0  0  0  0  0  0  0  0
   -9.6079    1.3061  -24.1572 C   0  0  0  0  0  0  0  0  0  0  0  0
  -10.7748    0.9984  -24.2981 O   0  0  0  0  0  0  0  0  0  0  0  0
   -9.3110    2.6607  -24.7291 N   0  0  0  0  0  0  0  0  0  0  0  0
   -7.8556    2.9485  -24.5077 C   0  0  0  0  0  0  0  0  0  0  0  0
   -7.2530    1.7717  -23.7990 C   0  0  0  0  0  0  0  0  0  0  0  0
   -9.5161   -0.1579  -23.4375 C   0  0  0  0  0  0  0  0  0  0  0  0
  -10.8568    0.2583  -23.9659 C   0  0  0  0  0  0  0  0  0  0  0  0
  -12.0368   -0.6563  -23.8210 C   0  0  0  0  0  0  0  0  0  0  0  0
  -13.3776   -0.2402  -24.3493 Cl  0  0  0  0  0  0  0  0  0  0  0  0
  -11.8761   -1.9871  -23.1477 C   0  0  0  0  0  0  0  0  0  0  0  0
  -10.5354   -2.4032  -22.6194 C   0  0  0  0  0  0  0  0  0  0  0  0
   -9.3554   -1.4887  -22.7643 C   0  0  0  0  0  0  0  0  0  0  0  0
   -8.0145   -1.9048  -22.2359 C   0  0  0  0  0  0  0  0  0  0  0  0
   -7.8538   -3.2356  -21.5627 O   0  0  0  0  0  0  0  0  0  0  0  0
  -10.2965    3.5681  -25.4039 C   0  0  0  0  0  0  0  0  0  0  0  0
  -10.1759    3.8465  -26.8729 C   0  0  0  0  0  0  0  0  0  0  0  0
  -11.1614    4.7539  -27.5477 N   0  0  0  0  0  0  0  0  0  0  0  0
  -12.2675    5.3830  -26.7535 C   0  0  0  0  0  0  0  0  0  0  0  0
  -12.3881    5.1046  -25.2845 C   0  0  0  0  0  0  0  0  0  0  0  0
  -13.4942    5.7337  -24.4902 C   0  0  0  0  0  0  0  0  0  0  0  0
  -13.6147    5.4553  -23.0212 C   0  0  0  0  0  0  0  0  0  0  0  0
  -12.6292    4.5479  -22.3464 C   0  0  0  0  0  0  0  0  0  0  0  0
  -11.5231    3.9188  -23.1406 C   0  0  0  0  0  0  0  0  0  0  0  0
  -11.4026    4.1972  -24.6097 C   0  0  0  0  0  0  0  0  0  0  0  0
   -5.4937   -1.4063  -21.8524 C   0  0  0  0  0  0  0  0  0  0  0  0
   -5.1998   -0.3581  -18.0361 C   0  0  0  0  0  0  0  0  0  0  0  0
   -5.4289   -0.2721  -19.5159 N   0  0  0  0  0  0  0  0  0  0  0  0
   -5.2645   -1.4924  -20.3725 C   0  0  0  0  0  0  0  0  0  0  0  0
   -4.8709   -2.7988  -19.7492 O   0  0  0  0  0  0  0  0  0  0  0  0
   -5.6873    0.5853  -19.9250 H   0  0  0  0  0  0  0  0  0  0  0  0
   -5.8192    1.6342  -23.3804 C   0  0  0  0  0  0  0  0  0  0  0  0
   -4.8923    2.8091  -23.4817 N   0  0  0  0  0  0  0  0  0  0  0  0
   -4.9438    3.4112  -24.2590 H   0  0  0  0  0  0  0  0  0  0  0  0
   -3.8868    3.0669  -22.3988 C   0  0  0  0  0  0  0  0  0  0  0  0
   -3.9210    2.2585  -21.1358 C   0  0  0  0  0  0  0  0  0  0  0  0
   -2.9157    2.5162  -20.0529 C   0  0  0  0  0  0  0  0  0  0  0  0
   -1.8759    3.5823  -20.2330 N   0  0  0  0  0  0  0  0  0  0  0  0
   -1.8417    4.3907  -21.4961 C   0  0  0  0  0  0  0  0  0  0  0  0
   -0.8021    5.4569  -21.6762 C   0  0  0  0  0  0  0  0  0  0  0  0
   -2.8472    4.1330  -22.5790 N   0  0  0  0  0  0  0  0  0  0  0  0
 29 30  1  0  0  0
 30 31  1  0  0  0
 31 32  2  0  0  0
 31 28  1  0  0  0
 28  1  1  0  0  0
  1  2  1  0  0  0
  3  2  1  0  0  0
  3  4  1  0  0  0
  4  5  2  0  0  0
  4  6  1  0  0  0
  6 18  1  0  0  0
 18 19  2  0  0  0
 19 20  1  0  0  0
 20 21  2  0  0  0
 21 22  1  0  0  0
 22 23  2  0  0  0
 23 24  1  0  0  0
 24 25  2  0  0  0
 25 26  1  0  0  0
 26 27  2  0  0  0
  6  7  1  0  0  0
  7  8  1  0  0  0
  8 34  1  0  0  0
 34 35  1  0  0  0
 35 37  1  0  0  0
 37 38  2  0  0  0
 38 39  1  0  0  0
 39 40  2  0  0  0
 40 41  1  0  0  0
 41 42  1  0  0  0
 41 43  2  0  0  0
  3  9  1  0  0  0
  9 10  2  0  0  0
 10 11  1  0  0  0
 11 12  1  0  0  0
 11 13  2  0  0  0
 13 14  1  0  0  0
 14 15  2  0  0  0
 15 16  1  0  0  0
 16 17  2  0  0  0
 16  1  1  0  0  0
  8  3  1  0  0  0
 43 37  1  0  0  0
 15  9  1  0  0  0
 27 18  1  0  0  0
 27 22  1  0  0  0
 30 33  1  0  0  0
 35 36  1  0  0  0
M  END
> <minimizedAffinity>
-7.84928

> <CNNscore>
0.2016807348

> <CNNaffinity>
6.3604998589

> <CNN_VS>
1.2827903032

> <CNNaffinity_variance>
0.1421224922

$$$$



 43 48  0  0  0  0  0  0  0  0999 V2000
   -8.3233    2.4142  -24.0879 N   0  0  0  0  0  0  0  0  0  0  0  0
   -7.4952    1.1638  -24.1186 C   0  0  0  0  0  0  0  0  0  0  0  0
   -8.1470   -0.1724  -23.9196 C   0  0  0  0  0  0  0  0  0  0  0  0
   -8.6559   -1.5716  -23.7374 C   0  0  0  0  0  0  0  0  0  0  0  0
   -9.6971   -2.1645  -23.5356 O   0  0  0  0  0  0  0  0  0  0  0  0
   -7.4881   -2.5071  -23.8431 N   0  0  0  0  0  0  0  0  0  0  0  0
   -6.2574   -1.6860  -24.0907 C   0  0  0  0  0  0  0  0  0  0  0  0
   -6.6646   -0.2431  -24.1380 C   0  0  0  0  0  0  0  0  0  0  0  0
   -9.6268   -0.2583  -23.6898 C   0  0  0  0  0  0  0  0  0  0  0  0
  -10.2786   -1.5946  -23.4908 C   0  0  0  0  0  0  0  0  0  0  0  0
  -11.7583   -1.6804  -23.2610 C   0  0  0  0  0  0  0  0  0  0  0  0
  -12.4102   -3.0167  -23.0620 Cl  0  0  0  0  0  0  0  0  0  0  0  0
  -12.5864   -0.4301  -23.2303 C   0  0  0  0  0  0  0  0  0  0  0  0
  -11.9346    0.9062  -23.4293 C   0  0  0  0  0  0  0  0  0  0  0  0
  -10.4549    0.9920  -23.6591 C   0  0  0  0  0  0  0  0  0  0  0  0
   -9.8030    2.3283  -23.8581 C   0  0  0  0  0  0  0  0  0  0  0  0
  -10.6311    3.5787  -23.8274 O   0  0  0  0  0  0  0  0  0  0  0  0
   -7.5416   -4.0012  -23.7225 C   0  0  0  0  0  0  0  0  0  0  0  0
   -7.0062   -4.6741  -22.4934 C   0  0  0  0  0  0  0  0  0  0  0  0
   -7.0597   -6.1683  -22.3727 N   0  0  0  0  0  0  0  0  0  0  0  0
   -7.6486   -6.9896  -23.4811 C   0  0  0  0  0  0  0  0  0  0  0  0
   -8.1840   -6.3167  -24.7102 C   0  0  0  0  0  0  0  0  0  0  0  0
   -8.7729   -7.1381  -25.8187 C   0  0  0  0  0  0  0  0  0  0  0  0
   -9.3083   -6.4651  -27.0477 C   0  0  0  0  0  0  0  0  0  0  0  0
   -9.2548   -4.9710  -27.1684 C   0  0  0  0  0  0  0  0  0  0  0  0
   -8.6659   -4.1497  -26.0600 C   0  0  0  0  0  0  0  0  0  0  0  0
   -8.1305   -4.8225  -24.8309 C   0  0  0  0  0  0  0  0  0  0  0  0
   -7.6715    3.7505  -24.2869 C   0  0  0  0  0  0  0  0  0  0  0  0
   -6.5207    6.7326  -21.9347 C   0  0  0  0  0  0  0  0  0  0  0  0
   -7.0862    5.9914  -23.1099 N   0  0  0  0  0  0  0  0  0  0  0  0
   -7.1060    4.4916  -23.1118 C   0  0  0  0  0  0  0  0  0  0  0  0
   -6.5604    3.7328  -21.9385 O   0  0  0  0  0  0  0  0  0  0  0  0
   -7.4443    6.4894  -23.8799 H   0  0  0  0  0  0  0  0  0  0  0  0
   -5.7501    0.9242  -24.3639 C   0  0  0  0  0  0  0  0  0  0  0  0
   -4.3416    0.8840  -23.8497 N   0  0  0  0  0  0  0  0  0  0  0  0
   -3.6027    0.6485  -24.4562 H   0  0  0  0  0  0  0  0  0  0  0  0
   -4.0588    1.2026  -22.4115 C   0  0  0  0  0  0  0  0  0  0  0  0
   -3.0839    2.2875  -22.0614 C   0  0  0  0  0  0  0  0  0  0  0  0
   -2.8010    2.6061  -20.6232 C   0  0  0  0  0  0  0  0  0  0  0  0
   -3.4931    1.8398  -19.5351 N   0  0  0  0  0  0  0  0  0  0  0  0
   -4.4680    0.7550  -19.8852 C   0  0  0  0  0  0  0  0  0  0  0  0
   -5.1600   -0.0113  -18.7971 C   0  0  0  0  0  0  0  0  0  0  0  0
   -4.7508    0.4363  -21.3234 N   0  0  0  0  0  0  0  0  0  0  0  0
 29 30  1  0  0  0
 30 31  1  0  0  0
 31 32  2  0  0  0
 31 28  1  0  0  0
 28  1  1  0  0  0
  1  2  1  0  0  0
  3  2  1  0  0  0
  3  4  1  0  0  0
  4  5  2  0  0  0
  4  6  1  0  0  0
  6 18  1  0  0  0
 18 19  2  0  0  0
 19 20  1  0  0  0
 20 21  2  0  0  0
 21 22  1  0  0  0
 22 23  2  0  0  0
 23 24  1  0  0  0
 24 25  2  0  0  0
 25 26  1  0  0  0
 26 27  2  0  0  0
  6  7  1  0  0  0
  7  8  1  0  0  0
  8 34  1  0  0  0
 34 35  1  0  0  0
 35 37  1  0  0  0
 37 38  2  0  0  0
 38 39  1  0  0  0
 39 40  2  0  0  0
 40 41  1  0  0  0
 41 42  1  0  0  0
 41 43  2  0  0  0
  3  9  1  0  0  0
  9 10  2  0  0  0
 10 11  1  0  0  0
 11 12  1  0  0  0
 11 13  2  0  0  0
 13 14  1  0  0  0
 14 15  2  0  0  0
 15 16  1  0  0  0
 16 17  2  0  0  0
 16  1  1  0  0  0
  8  3  1  0  0  0
 43 37  1  0  0  0
 15  9  1  0  0  0
 27 18  1  0  0  0
 27 22  1  0  0  0
 30 33  1  0  0  0
 35 36  1  0  0  0
M  END
> <minimizedAffinity>
-8.13681

> <CNNscore>
0.1672654450

> <CNNaffinity>
6.5856657028

> <CNN_VS>
1.1015542746

> <CNNaffinity_variance>
0.3007632792

$$$$



 43 48  0  0  0  0  0  0  0  0999 V2000
   -8.8173    2.7203  -23.8794 N   0  0  0  0  0  0  0  0  0  0  0  0
   -7.8926    1.5411  -23.9472 C   0  0  0  0  0  0  0  0  0  0  0  0
   -8.4395    0.1506  -23.8157 C   0  0  0  0  0  0  0  0  0  0  0  0
   -8.8388   -1.2907  -23.7011 C   0  0  0  0  0  0  0  0  0  0  0  0
   -9.8327   -1.9715  -23.5429 O   0  0  0  0  0  0  0  0  0  0  0  0
   -7.5992   -2.1264  -23.8246 N   0  0  0  0  0  0  0  0  0  0  0  0
   -6.4339   -1.2015  -24.0156 C   0  0  0  0  0  0  0  0  0  0  0  0
   -6.9532    0.2057  -24.0101 C   0  0  0  0  0  0  0  0  0  0  0  0
   -9.9112   -0.0608  -23.6164 C   0  0  0  0  0  0  0  0  0  0  0  0
  -10.4580   -1.4514  -23.4849 C   0  0  0  0  0  0  0  0  0  0  0  0
  -11.9296   -1.6627  -23.2856 C   0  0  0  0  0  0  0  0  0  0  0  0
  -12.4765   -3.0533  -23.1541 Cl  0  0  0  0  0  0  0  0  0  0  0  0
  -12.8543   -0.4836  -23.2178 C   0  0  0  0  0  0  0  0  0  0  0  0
  -12.3074    0.9069  -23.3493 C   0  0  0  0  0  0  0  0  0  0  0  0
  -10.8358    1.1183  -23.5486 C   0  0  0  0  0  0  0  0  0  0  0  0
  -10.2889    2.5089  -23.6801 C   0  0  0  0  0  0  0  0  0  0  0  0
  -11.2136    3.6880  -23.6122 O   0  0  0  0  0  0  0  0  0  0  0  0
   -7.5362   -3.6239  -23.7672 C   0  0  0  0  0  0  0  0  0  0  0  0
   -6.9736   -4.3050  -22.5549 C   0  0  0  0  0  0  0  0  0  0  0  0
   -6.9106   -5.8026  -22.4975 N   0  0  0  0  0  0  0  0  0  0  0  0
   -7.4101   -6.6191  -23.6524 C   0  0  0  0  0  0  0  0  0  0  0  0
   -7.9726   -5.9380  -24.8648 C   0  0  0  0  0  0  0  0  0  0  0  0
   -8.4721   -6.7545  -26.0197 C   0  0  0  0  0  0  0  0  0  0  0  0
   -9.0346   -6.0733  -27.2320 C   0  0  0  0  0  0  0  0  0  0  0  0
   -9.0977   -4.5758  -27.2894 C   0  0  0  0  0  0  0  0  0  0  0  0
   -8.5982   -3.7593  -26.1345 C   0  0  0  0  0  0  0  0  0  0  0  0
   -8.0357   -4.4404  -24.9221 C   0  0  0  0  0  0  0  0  0  0  0  0
   -8.2704    4.1108  -24.0109 C   0  0  0  0  0  0  0  0  0  0  0  0
   -6.2537    6.7317  -21.8168 C   0  0  0  0  0  0  0  0  0  0  0  0
   -7.1064    6.1549  -22.9078 N   0  0  0  0  0  0  0  0  0  0  0  0
   -7.4177    4.6876  -22.9199 C   0  0  0  0  0  0  0  0  0  0  0  0
   -6.8762    3.7971  -21.8411 O   0  0  0  0  0  0  0  0  0  0  0  0
   -7.4617    6.7394  -23.6158 H   0  0  0  0  0  0  0  0  0  0  0  0
   -6.1306    1.4497  -24.1708 C   0  0  0  0  0  0  0  0  0  0  0  0
   -4.6603    1.4199  -23.8758 N   0  0  0  0  0  0  0  0  0  0  0  0
   -4.0168    1.2382  -24.5984 H   0  0  0  0  0  0  0  0  0  0  0  0
   -4.1702    1.6670  -22.4798 C   0  0  0  0  0  0  0  0  0  0  0  0
   -4.7758    0.9193  -21.3290 C   0  0  0  0  0  0  0  0  0  0  0  0
   -4.2857    1.1663  -19.9331 C   0  0  0  0  0  0  0  0  0  0  0  0
   -3.1901    2.1610  -19.6878 N   0  0  0  0  0  0  0  0  0  0  0  0
   -2.5845    2.9087  -20.8385 C   0  0  0  0  0  0  0  0  0  0  0  0
   -1.4888    3.9034  -20.5933 C   0  0  0  0  0  0  0  0  0  0  0  0
   -3.0745    2.6617  -22.2345 N   0  0  0  0  0  0  0  0  0  0  0  0
 29 30  1  0  0  0
 30 31  1  0  0  0
 31 32  2  0  0  0
 31 28  1  0  0  0
 28  1  1  0  0  0
  1  2  1  0  0  0
  3  2  1  0  0  0
  3  4  1  0  0  0
  4  5  2  0  0  0
  4  6  1  0  0  0
  6 18  1  0  0  0
 18 19  2  0  0  0
 19 20  1  0  0  0
 20 21  2  0  0  0
 21 22  1  0  0  0
 22 23  2  0  0  0
 23 24  1  0  0  0
 24 25  2  0  0  0
 25 26  1  0  0  0
 26 27  2  0  0  0
  6  7  1  0  0  0
  7  8  1  0  0  0
  8 34  1  0  0  0
 34 35  1  0  0  0
 35 37  1  0  0  0
 37 38  2  0  0  0
 38 39  1  0  0  0
 39 40  2  0  0  0
 40 41  1  0  0  0
 41 42  1  0  0  0
 41 43  2  0  0  0
  3  9  1  0  0  0
  9 10  2  0  0  0
 10 11  1  0  0  0
 11 12  1  0  0  0
 11 13  2  0  0  0
 13 14  1  0  0  0
 14 15  2  0  0  0
 15 16  1  0  0  0
 16 17  2  0  0  0
 16  1  1  0  0  0
  8  3  1  0  0  0
 43 37  1  0  0  0
 15  9  1  0  0  0
 27 18  1  0  0  0
 27 22  1  0  0  0
 30 33  1  0  0  0
 35 36  1  0  0  0
M  END
> <minimizedAffinity>
-7.77411

> <CNNscore>
0.1487072259

> <CNNaffinity>
6.4755654335

> <CNN_VS>
0.9629633427

> <CNNaffinity_variance>
0.2132297307

$$$$



 43 48  0  0  0  0  0  0  0  0999 V2000
   -6.5028   -0.4215  -23.0559 N   0  0  0  0  0  0  0  0  0  0  0  0
   -6.8434    0.8941  -23.6908 C   0  0  0  0  0  0  0  0  0  0  0  0
   -8.2685    1.2168  -24.0296 C   0  0  0  0  0  0  0  0  0  0  0  0
   -9.6410    1.6770  -24.4228 C   0  0  0  0  0  0  0  0  0  0  0  0
  -10.7926    1.2899  -24.4068 O   0  0  0  0  0  0  0  0  0  0  0  0
   -9.5171    3.0478  -25.0190 N   0  0  0  0  0  0  0  0  0  0  0  0
   -8.0682    3.4348  -24.9943 C   0  0  0  0  0  0  0  0  0  0  0  0
   -7.2965    2.3032  -24.3829 C   0  0  0  0  0  0  0  0  0  0  0  0
   -9.3531    0.2237  -23.7335 C   0  0  0  0  0  0  0  0  0  0  0  0
  -10.7783    0.5464  -24.0723 C   0  0  0  0  0  0  0  0  0  0  0  0
  -11.8628   -0.4466  -23.7762 C   0  0  0  0  0  0  0  0  0  0  0  0
  -13.2880   -0.1240  -24.1151 Cl  0  0  0  0  0  0  0  0  0  0  0  0
  -11.5222   -1.7622  -23.1413 C   0  0  0  0  0  0  0  0  0  0  0  0
  -10.0971   -2.0849  -22.8025 C   0  0  0  0  0  0  0  0  0  0  0  0
   -9.0125   -1.0919  -23.0986 C   0  0  0  0  0  0  0  0  0  0  0  0
   -7.5873   -1.4145  -22.7598 C   0  0  0  0  0  0  0  0  0  0  0  0
   -7.2467   -2.7301  -22.1249 O   0  0  0  0  0  0  0  0  0  0  0  0
  -10.6444    3.8847  -25.5471 C   0  0  0  0  0  0  0  0  0  0  0  0
  -10.7216    4.2009  -27.0114 C   0  0  0  0  0  0  0  0  0  0  0  0
  -11.8489    5.0377  -27.5395 N   0  0  0  0  0  0  0  0  0  0  0  0
  -12.8990    5.5583  -26.6034 C   0  0  0  0  0  0  0  0  0  0  0  0
  -12.8217    5.2421  -25.1392 C   0  0  0  0  0  0  0  0  0  0  0  0
  -13.8719    5.7627  -24.2030 C   0  0  0  0  0  0  0  0  0  0  0  0
  -13.7946    5.4464  -22.7388 C   0  0  0  0  0  0  0  0  0  0  0  0
  -12.6673    4.6096  -22.2106 C   0  0  0  0  0  0  0  0  0  0  0  0
  -11.6173    4.0890  -23.1467 C   0  0  0  0  0  0  0  0  0  0  0  0
  -11.6945    4.4052  -24.6110 C   0  0  0  0  0  0  0  0  0  0  0  0
   -5.0775   -0.7441  -22.7171 C   0  0  0  0  0  0  0  0  0  0  0  0
   -1.7306    0.7019  -24.2846 C   0  0  0  0  0  0  0  0  0  0  0  0
   -2.8215    0.4056  -23.2985 N   0  0  0  0  0  0  0  0  0  0  0  0
   -3.9867   -0.4478  -23.7031 C   0  0  0  0  0  0  0  0  0  0  0  0
   -4.0612   -1.0051  -25.0938 O   0  0  0  0  0  0  0  0  0  0  0  0
   -2.7726    0.7713  -22.3858 H   0  0  0  0  0  0  0  0  0  0  0  0
   -5.8131    2.2648  -24.1632 C   0  0  0  0  0  0  0  0  0  0  0  0
   -5.1276    3.4055  -23.4714 N   0  0  0  0  0  0  0  0  0  0  0  0
   -5.2192    4.3207  -23.8225 H   0  0  0  0  0  0  0  0  0  0  0  0
   -4.3023    3.1519  -22.2448 C   0  0  0  0  0  0  0  0  0  0  0  0
   -3.0582    3.9530  -21.9990 C   0  0  0  0  0  0  0  0  0  0  0  0
   -2.2330    3.6994  -20.7724 C   0  0  0  0  0  0  0  0  0  0  0  0
   -2.6519    2.6447  -19.7914 N   0  0  0  0  0  0  0  0  0  0  0  0
   -3.8960    1.8436  -20.0372 C   0  0  0  0  0  0  0  0  0  0  0  0
   -4.3149    0.7890  -19.0563 C   0  0  0  0  0  0  0  0  0  0  0  0
   -4.7212    2.0972  -21.2638 N   0  0  0  0  0  0  0  0  0  0  0  0
 29 30  1  0  0  0
 30 31  1  0  0  0
 31 32  2  0  0  0
 31 28  1  0  0  0
 28  1  1  0  0  0
  1  2  1  0  0  0
  3  2  1  0  0  0
  3  4  1  0  0  0
  4  5  2  0  0  0
  4  6  1  0  0  0
  6 18  1  0  0  0
 18 19  2  0  0  0
 19 20  1  0  0  0
 20 21  2  0  0  0
 21 22  1  0  0  0
 22 23  2  0  0  0
 23 24  1  0  0  0
 24 25  2  0  0  0
 25 26  1  0  0  0
 26 27  2  0  0  0
  6  7  1  0  0  0
  7  8  1  0  0  0
  8 34  1  0  0  0
 34 35  1  0  0  0
 35 37  1  0  0  0
 37 38  2  0  0  0
 38 39  1  0  0  0
 39 40  2  0  0  0
 40 41  1  0  0  0
 41 42  1  0  0  0
 41 43  2  0  0  0
  3  9  1  0  0  0
  9 10  2  0  0  0
 10 11  1  0  0  0
 11 12  1  0  0  0
 11 13  2  0  0  0
 13 14  1  0  0  0
 14 15  2  0  0  0
 15 16  1  0  0  0
 16 17  2  0  0  0
 16  1  1  0  0  0
  8  3  1  0  0  0
 43 37  1  0  0  0
 15  9  1  0  0  0
 27 18  1  0  0  0
 27 22  1  0  0  0
 30 33  1  0  0  0
 35 36  1  0  0  0
M  END
> <minimizedAffinity>
-7.78887

> <CNNscore>
0.1467835754

> <CNNaffinity>
6.3655300140

> <CNN_VS>
0.9343552589

> <CNNaffinity_variance>
0.1887305975

$$$$
