


 43 48  0  0  0  0  0  0  0  0999 V2000
    9.7863    0.6005   22.9955 N   0  0  0  0  0  0  0  0  0  0  0  0
    8.6311   -0.3478   22.8676 C   0  0  0  0  0  0  0  0  0  0  0  0
    8.6345   -1.6408   23.6278 C   0  0  0  0  0  0  0  0  0  0  0  0
    8.4982   -2.9633   24.3224 C   0  0  0  0  0  0  0  0  0  0  0  0
    9.1055   -3.6739   25.0987 O   0  0  0  0  0  0  0  0  0  0  0  0
    7.1922   -3.5729   23.9067 N   0  0  0  0  0  0  0  0  0  0  0  0
    6.5214   -2.6272   22.9550 C   0  0  0  0  0  0  0  0  0  0  0  0
    7.4127   -1.4332   22.7826 C   0  0  0  0  0  0  0  0  0  0  0  0
    9.7931   -1.9857   24.5159 C   0  0  0  0  0  0  0  0  0  0  0  0
    9.7964   -3.2788   25.2761 C   0  0  0  0  0  0  0  0  0  0  0  0
   10.9550   -3.6237   26.1642 C   0  0  0  0  0  0  0  0  0  0  0  0
   10.9584   -4.9168   26.9245 Cl  0  0  0  0  0  0  0  0  0  0  0  0
   12.1102   -2.6754   26.2922 C   0  0  0  0  0  0  0  0  0  0  0  0
   12.1068   -1.3823   25.5320 C   0  0  0  0  0  0  0  0  0  0  0  0
   10.9483   -1.0375   24.6439 C   0  0  0  0  0  0  0  0  0  0  0  0
   10.9449    0.2556   23.8836 C   0  0  0  0  0  0  0  0  0  0  0  0
   12.1001    1.2039   24.0116 O   0  0  0  0  0  0  0  0  0  0  0  0
    6.6520   -4.8959   24.3626 C   0  0  0  0  0  0  0  0  0  0  0  0
    7.2174   -6.1689   23.8061 C   0  0  0  0  0  0  0  0  0  0  0  0
    6.6772   -7.4919   24.2620 N   0  0  0  0  0  0  0  0  0  0  0  0
    5.5715   -7.5418   25.2743 C   0  0  0  0  0  0  0  0  0  0  0  0
    5.0060   -6.2688   25.8308 C   0  0  0  0  0  0  0  0  0  0  0  0
    3.9003   -6.3188   26.8433 C   0  0  0  0  0  0  0  0  0  0  0  0
    3.3349   -5.0457   27.3997 C   0  0  0  0  0  0  0  0  0  0  0  0
    3.8751   -3.7227   26.9438 C   0  0  0  0  0  0  0  0  0  0  0  0
    4.9808   -3.6728   25.9314 C   0  0  0  0  0  0  0  0  0  0  0  0
    5.5463   -4.9458   25.3750 C   0  0  0  0  0  0  0  0  0  0  0  0
    9.7829    1.8936   22.2353 C   0  0  0  0  0  0  0  0  0  0  0  0
   11.5795    5.3444   23.0191 C   0  0  0  0  0  0  0  0  0  0  0  0
   10.5001    4.3307   22.7794 N   0  0  0  0  0  0  0  0  0  0  0  0
   10.8623    2.9073   22.4750 C   0  0  0  0  0  0  0  0  0  0  0  0
   12.3038    2.4975   22.4101 O   0  0  0  0  0  0  0  0  0  0  0  0
    9.5540    4.5996   22.8219 H   0  0  0  0  0  0  0  0  0  0  0  0
    7.1317   -0.2408   21.9171 C   0  0  0  0  0  0  0  0  0  0  0  0
    7.0059   -0.4052   20.4315 N   0  0  0  0  0  0  0  0  0  0  0  0
    7.6140   -1.0117   19.9502 H   0  0  0  0  0  0  0  0  0  0  0  0
    5.9538    0.3543   19.6791 C   0  0  0  0  0  0  0  0  0  0  0  0
    5.7918    0.1481   18.2023 C   0  0  0  0  0  0  0  0  0  0  0  0
    4.7397    0.9075   17.4499 C   0  0  0  0  0  0  0  0  0  0  0  0
    3.8494    1.8733   18.1744 N   0  0  0  0  0  0  0  0  0  0  0  0
    4.0114    2.0795   19.6513 C   0  0  0  0  0  0  0  0  0  0  0  0
    3.1212    3.0453   20.3758 C   0  0  0  0  0  0  0  0  0  0  0  0
    5.0636    1.3200   20.4037 N   0  0  0  0  0  0  0  0  0  0  0  0
 29 30  1  0  0  0
 30 31  1  0  0  0
 31 32  2  0  0  0
 31 28  1  0  0  0
 28  1  1  0  0  0
  1  2  1  0  0  0
  3  2  1  0  0  0
  3  4  1  0  0  0
  4  5  2  0  0  0
  4  6  1  0  0  0
  6 18  1  0  0  0
 18 19  2  0  0  0
 19 20  1  0  0  0
 20 21  2  0  0  0
 21 22  1  0  0  0
 22 23  2  0  0  0
 23 24  1  0  0  0
 24 25  2  0  0  0
 25 26  1  0  0  0
 26 27  2  0  0  0
  6  7  1  0  0  0
  7  8  1  0  0  0
  8 34  1  0  0  0
 34 35  1  0  0  0
 35 37  1  0  0  0
 37 38  2  0  0  0
 38 39  1  0  0  0
 39 40  2  0  0  0
 40 41  1  0  0  0
 41 42  1  0  0  0
 41 43  2  0  0  0
  3  9  1  0  0  0
  9 10  2  0  0  0
 10 11  1  0  0  0
 11 12  1  0  0  0
 11 13  2  0  0  0
 13 14  1  0  0  0
 14 15  2  0  0  0
 15 16  1  0  0  0
 16 17  2  0  0  0
 16  1  1  0  0  0
  8  3  1  0  0  0
 43 37  1  0  0  0
 15  9  1  0  0  0
 27 18  1  0  0  0
 27 22  1  0  0  0
 30 33  1  0  0  0
 35 36  1  0  0  0
M  END
> <minimizedAffinity>
-9.51520

> <CNNscore>
0.1865370572

> <CNNaffinity>
6.9916777611

> <CNN_VS>
1.3042069674

> <CNNaffinity_variance>
0.1030904651

$$$$



 43 48  0  0  0  0  0  0  0  0999 V2000
    7.1467   -3.8587   23.2483 N   0  0  0  0  0  0  0  0  0  0  0  0
    7.3402   -2.4756   22.7012 C   0  0  0  0  0  0  0  0  0  0  0  0
    8.5072   -1.6475   23.1510 C   0  0  0  0  0  0  0  0  0  0  0  0
    9.6207   -0.7070   23.5053 C   0  0  0  0  0  0  0  0  0  0  0  0
   10.6084   -0.6578   24.2113 O   0  0  0  0  0  0  0  0  0  0  0  0
    9.4229    0.5598   22.7267 N   0  0  0  0  0  0  0  0  0  0  0  0
    8.1871    0.4022   21.8913 C   0  0  0  0  0  0  0  0  0  0  0  0
    7.6212   -0.9620   22.1535 C   0  0  0  0  0  0  0  0  0  0  0  0
    9.4807   -2.2026   24.1482 C   0  0  0  0  0  0  0  0  0  0  0  0
   10.6477   -1.3746   24.5981 C   0  0  0  0  0  0  0  0  0  0  0  0
   11.6212   -1.9297   25.5952 C   0  0  0  0  0  0  0  0  0  0  0  0
   12.7882   -1.1016   26.0451 Cl  0  0  0  0  0  0  0  0  0  0  0  0
   11.4276   -3.3128   26.1423 C   0  0  0  0  0  0  0  0  0  0  0  0
   10.2607   -4.1409   25.6924 C   0  0  0  0  0  0  0  0  0  0  0  0
    9.2872   -3.5858   24.6954 C   0  0  0  0  0  0  0  0  0  0  0  0
    8.1202   -4.4138   24.2454 C   0  0  0  0  0  0  0  0  0  0  0  0
    7.9266   -5.7970   24.7926 O   0  0  0  0  0  0  0  0  0  0  0  0
   10.3059    1.7714   22.7751 C   0  0  0  0  0  0  0  0  0  0  0  0
   11.7921    1.6224   22.6369 C   0  0  0  0  0  0  0  0  0  0  0  0
   12.6751    2.8340   22.6853 N   0  0  0  0  0  0  0  0  0  0  0  0
   12.0719    4.1946   22.8719 C   0  0  0  0  0  0  0  0  0  0  0  0
   10.5857    4.3436   23.0102 C   0  0  0  0  0  0  0  0  0  0  0  0
    9.9825    5.7043   23.1968 C   0  0  0  0  0  0  0  0  0  0  0  0
    8.4963    5.8532   23.3351 C   0  0  0  0  0  0  0  0  0  0  0  0
    7.6133    4.6416   23.2867 C   0  0  0  0  0  0  0  0  0  0  0  0
    8.2165    3.2810   23.1000 C   0  0  0  0  0  0  0  0  0  0  0  0
    9.7027    3.1320   22.9618 C   0  0  0  0  0  0  0  0  0  0  0  0
    5.9797   -4.6868   22.7984 C   0  0  0  0  0  0  0  0  0  0  0  0
    3.7535   -7.3898   24.6660 C   0  0  0  0  0  0  0  0  0  0  0  0
    4.6574   -6.7540   23.6518 N   0  0  0  0  0  0  0  0  0  0  0  0
    5.0758   -5.3226   23.8127 C   0  0  0  0  0  0  0  0  0  0  0  0
    4.5902   -4.5268   24.9879 O   0  0  0  0  0  0  0  0  0  0  0  0
    4.9761   -7.2763   22.8804 H   0  0  0  0  0  0  0  0  0  0  0  0
    6.3861   -1.5392   21.5281 C   0  0  0  0  0  0  0  0  0  0  0  0
    5.1210   -0.7346   21.4848 N   0  0  0  0  0  0  0  0  0  0  0  0
    4.5104   -0.7356   22.2571 H   0  0  0  0  0  0  0  0  0  0  0  0
    4.7862    0.0716   20.2650 C   0  0  0  0  0  0  0  0  0  0  0  0
    5.5467   -0.1454   18.9905 C   0  0  0  0  0  0  0  0  0  0  0  0
    5.2119    0.6607   17.7708 C   0  0  0  0  0  0  0  0  0  0  0  0
    4.1165    1.6841   17.8254 N   0  0  0  0  0  0  0  0  0  0  0  0
    3.3559    1.9011   19.0999 C   0  0  0  0  0  0  0  0  0  0  0  0
    2.2605    2.9243   19.1546 C   0  0  0  0  0  0  0  0  0  0  0  0
    3.6907    1.0949   20.3197 N   0  0  0  0  0  0  0  0  0  0  0  0
 29 30  1  0  0  0
 30 31  1  0  0  0
 31 32  2  0  0  0
 31 28  1  0  0  0
 28  1  1  0  0  0
  1  2  1  0  0  0
  3  2  1  0  0  0
  3  4  1  0  0  0
  4  5  2  0  0  0
  4  6  1  0  0  0
  6 18  1  0  0  0
 18 19  2  0  0  0
 19 20  1  0  0  0
 20 21  2  0  0  0
 21 22  1  0  0  0
 22 23  2  0  0  0
 23 24  1  0  0  0
 24 25  2  0  0  0
 25 26  1  0  0  0
 26 27  2  0  0  0
  6  7  1  0  0  0
  7  8  1  0  0  0
  8 34  1  0  0  0
 34 35  1  0  0  0
 35 37  1  0  0  0
 37 38  2  0  0  0
 38 39  1  0  0  0
 39 40  2  0  0  0
 40 41  1  0  0  0
 41 42  1  0  0  0
 41 43  2  0  0  0
  3  9  1  0  0  0
  9 10  2  0  0  0
 10 11  1  0  0  0
 11 12  1  0  0  0
 11 13  2  0  0  0
 13 14  1  0  0  0
 14 15  2  0  0  0
 15 16  1  0  0  0
 16 17  2  0  0  0
 16  1  1  0  0  0
  8  3  1  0  0  0
 43 37  1  0  0  0
 15  9  1  0  0  0
 27 18  1  0  0  0
 27 22  1  0  0  0
 30 33  1  0  0  0
 35 36  1  0  0  0
M  END
> <minimizedAffinity>
-9.08675

> <CNNscore>
0.1777807027

> <CNNaffinity>
6.7438058853

> <CNN_VS>
1.1989185810

> <CNNaffinity_variance>
0.2655595541

$$$$



 43 48  0  0  0  0  0  0  0  0999 V2000
    6.8910   -3.5451   23.4576 N   0  0  0  0  0  0  0  0  0  0  0  0
    7.1098   -2.1607   22.9233 C   0  0  0  0  0  0  0  0  0  0  0  0
    8.3669   -1.4159   23.2623 C   0  0  0  0  0  0  0  0  0  0  0  0
    9.5677   -0.5530   23.5145 C   0  0  0  0  0  0  0  0  0  0  0  0
   10.6262   -0.5821   24.1104 O   0  0  0  0  0  0  0  0  0  0  0  0
    9.3663    0.7449   22.7900 N   0  0  0  0  0  0  0  0  0  0  0  0
    8.0410    0.6842   22.0900 C   0  0  0  0  0  0  0  0  0  0  0  0
    7.4234   -0.6513   22.3819 C   0  0  0  0  0  0  0  0  0  0  0  0
    9.4053   -2.0555   24.1357 C   0  0  0  0  0  0  0  0  0  0  0  0
   10.6623   -1.3107   24.4748 C   0  0  0  0  0  0  0  0  0  0  0  0
   11.7006   -1.9503   25.3482 C   0  0  0  0  0  0  0  0  0  0  0  0
   12.9578   -1.2055   25.6873 Cl  0  0  0  0  0  0  0  0  0  0  0  0
   11.4818   -3.3348   25.8825 C   0  0  0  0  0  0  0  0  0  0  0  0
   10.2247   -4.0796   25.5435 C   0  0  0  0  0  0  0  0  0  0  0  0
    9.1864   -3.4399   24.6701 C   0  0  0  0  0  0  0  0  0  0  0  0
    7.9293   -4.1847   24.3310 C   0  0  0  0  0  0  0  0  0  0  0  0
    7.7105   -5.5691   24.8653 O   0  0  0  0  0  0  0  0  0  0  0  0
   10.3223    1.9006   22.7692 C   0  0  0  0  0  0  0  0  0  0  0  0
   11.7885    1.6575   22.5667 C   0  0  0  0  0  0  0  0  0  0  0  0
   12.7445    2.8132   22.5459 N   0  0  0  0  0  0  0  0  0  0  0  0
   12.2343    4.2119   22.7276 C   0  0  0  0  0  0  0  0  0  0  0  0
   10.7680    4.4550   22.9301 C   0  0  0  0  0  0  0  0  0  0  0  0
   10.2577    5.8539   23.1119 C   0  0  0  0  0  0  0  0  0  0  0  0
    8.7915    6.0969   23.3144 C   0  0  0  0  0  0  0  0  0  0  0  0
    7.8355    4.9412   23.3352 C   0  0  0  0  0  0  0  0  0  0  0  0
    8.3457    3.5424   23.1535 C   0  0  0  0  0  0  0  0  0  0  0  0
    9.8120    3.2993   22.9509 C   0  0  0  0  0  0  0  0  0  0  0  0
    5.6339   -4.2899   23.1185 C   0  0  0  0  0  0  0  0  0  0  0  0
    4.0802   -5.8697   26.4109 C   0  0  0  0  0  0  0  0  0  0  0  0
    4.6384   -4.8635   25.4487 N   0  0  0  0  0  0  0  0  0  0  0  0
    5.0756   -5.2962   24.0807 C   0  0  0  0  0  0  0  0  0  0  0  0
    4.9545   -6.7352   23.6748 O   0  0  0  0  0  0  0  0  0  0  0  0
    4.7179   -3.9191   25.7152 H   0  0  0  0  0  0  0  0  0  0  0  0
    6.0954   -1.1368   21.8812 C   0  0  0  0  0  0  0  0  0  0  0  0
    4.8637   -0.3088   22.0983 N   0  0  0  0  0  0  0  0  0  0  0  0
    4.4025   -0.3311   22.9678 H   0  0  0  0  0  0  0  0  0  0  0  0
    4.3344    0.5530   20.9906 C   0  0  0  0  0  0  0  0  0  0  0  0
    3.1894    1.4870   21.2487 C   0  0  0  0  0  0  0  0  0  0  0  0
    2.6602    2.3489   20.1410 C   0  0  0  0  0  0  0  0  0  0  0  0
    3.2759    2.2768   18.7751 N   0  0  0  0  0  0  0  0  0  0  0  0
    4.4209    1.3428   18.5169 C   0  0  0  0  0  0  0  0  0  0  0  0
    5.0367    1.2707   17.1511 C   0  0  0  0  0  0  0  0  0  0  0  0
    4.9502    0.4810   19.6247 N   0  0  0  0  0  0  0  0  0  0  0  0
 29 30  1  0  0  0
 30 31  1  0  0  0
 31 32  2  0  0  0
 31 28  1  0  0  0
 28  1  1  0  0  0
  1  2  1  0  0  0
  3  2  1  0  0  0
  3  4  1  0  0  0
  4  5  2  0  0  0
  4  6  1  0  0  0
  6 18  1  0  0  0
 18 19  2  0  0  0
 19 20  1  0  0  0
 20 21  2  0  0  0
 21 22  1  0  0  0
 22 23  2  0  0  0
 23 24  1  0  0  0
 24 25  2  0  0  0
 25 26  1  0  0  0
 26 27  2  0  0  0
  6  7  1  0  0  0
  7  8  1  0  0  0
  8 34  1  0  0  0
 34 35  1  0  0  0
 35 37  1  0  0  0
 37 38  2  0  0  0
 38 39  1  0  0  0
 39 40  2  0  0  0
 40 41  1  0  0  0
 41 42  1  0  0  0
 41 43  2  0  0  0
  3  9  1  0  0  0
  9 10  2  0  0  0
 10 11  1  0  0  0
 11 12  1  0  0  0
 11 13  2  0  0  0
 13 14  1  0  0  0
 14 15  2  0  0  0
 15 16  1  0  0  0
 16 17  2  0  0  0
 16  1  1  0  0  0
  8  3  1  0  0  0
 43 37  1  0  0  0
 15  9  1  0  0  0
 27 18  1  0  0  0
 27 22  1  0  0  0
 30 33  1  0  0  0
 35 36  1  0  0  0
M  END
> <minimizedAffinity>
-8.80485

> <CNNscore>
0.1762078106

> <CNNaffinity>
6.9173369408

> <CNN_VS>
1.2188887596

> <CNNaffinity_variance>
0.1397349089

$$$$



 43 48  0  0  0  0  0  0  0  0999 V2000
    6.9643   -3.7455   23.0172 N   0  0  0  0  0  0  0  0  0  0  0  0
    7.2018   -2.3613   22.4903 C   0  0  0  0  0  0  0  0  0  0  0  0
    8.3708   -1.5613   22.9838 C   0  0  0  0  0  0  0  0  0  0  0  0
    9.4914   -0.6469   23.3812 C   0  0  0  0  0  0  0  0  0  0  0  0
   10.4579   -0.6243   24.1173 O   0  0  0  0  0  0  0  0  0  0  0  0
    9.3426    0.6311   22.6100 N   0  0  0  0  0  0  0  0  0  0  0  0
    8.1300    0.5064   21.7359 C   0  0  0  0  0  0  0  0  0  0  0  0
    7.5294   -0.8485   21.9670 C   0  0  0  0  0  0  0  0  0  0  0  0
    9.3022   -2.1455   24.0043 C   0  0  0  0  0  0  0  0  0  0  0  0
   10.4711   -1.3455   24.4978 C   0  0  0  0  0  0  0  0  0  0  0  0
   11.4024   -1.9296   25.5182 C   0  0  0  0  0  0  0  0  0  0  0  0
   12.5714   -1.1296   26.0118 Cl  0  0  0  0  0  0  0  0  0  0  0  0
   11.1649   -3.3138   26.0452 C   0  0  0  0  0  0  0  0  0  0  0  0
    9.9959   -4.1138   25.5516 C   0  0  0  0  0  0  0  0  0  0  0  0
    9.0646   -3.5296   24.5312 C   0  0  0  0  0  0  0  0  0  0  0  0
    7.8956   -4.3296   24.0377 C   0  0  0  0  0  0  0  0  0  0  0  0
    7.6580   -5.7138   24.5646 O   0  0  0  0  0  0  0  0  0  0  0  0
   10.2476    1.8241   22.6975 C   0  0  0  0  0  0  0  0  0  0  0  0
   11.7316    1.6513   22.5632 C   0  0  0  0  0  0  0  0  0  0  0  0
   12.6365    2.8444   22.6507 N   0  0  0  0  0  0  0  0  0  0  0  0
   12.0576    4.2102   22.8726 C   0  0  0  0  0  0  0  0  0  0  0  0
   10.5736    4.3830   23.0069 C   0  0  0  0  0  0  0  0  0  0  0  0
    9.9946    5.7489   23.2288 C   0  0  0  0  0  0  0  0  0  0  0  0
    8.5106    5.9216   23.3632 C   0  0  0  0  0  0  0  0  0  0  0  0
    7.6057    4.7285   23.2757 C   0  0  0  0  0  0  0  0  0  0  0  0
    8.1847    3.3627   23.0538 C   0  0  0  0  0  0  0  0  0  0  0  0
    9.6686    3.1899   22.9194 C   0  0  0  0  0  0  0  0  0  0  0  0
    5.7953   -4.5455   22.5237 C   0  0  0  0  0  0  0  0  0  0  0  0
    3.7881   -5.1538   25.8928 C   0  0  0  0  0  0  0  0  0  0  0  0
    4.7872   -4.6057   24.9174 N   0  0  0  0  0  0  0  0  0  0  0  0
    4.7962   -5.0936   23.4991 C   0  0  0  0  0  0  0  0  0  0  0  0
    3.8061   -6.1297   23.0560 O   0  0  0  0  0  0  0  0  0  0  0  0
    5.4371   -3.9257   25.2082 H   0  0  0  0  0  0  0  0  0  0  0  0
    6.3027   -1.3947   21.2985 C   0  0  0  0  0  0  0  0  0  0  0  0
    5.8002   -0.7728   20.0294 N   0  0  0  0  0  0  0  0  0  0  0  0
    6.1417   -1.0838   19.1600 H   0  0  0  0  0  0  0  0  0  0  0  0
    4.7773    0.3229   20.0849 C   0  0  0  0  0  0  0  0  0  0  0  0
    4.4038    1.0642   18.8355 C   0  0  0  0  0  0  0  0  0  0  0  0
    3.3809    2.1599   18.8910 C   0  0  0  0  0  0  0  0  0  0  0  0
    2.7315    2.5144   20.1959 N   0  0  0  0  0  0  0  0  0  0  0  0
    3.1050    1.7731   21.4453 C   0  0  0  0  0  0  0  0  0  0  0  0
    2.4556    2.1275   22.7501 C   0  0  0  0  0  0  0  0  0  0  0  0
    4.1279    0.6773   21.3898 N   0  0  0  0  0  0  0  0  0  0  0  0
 29 30  1  0  0  0
 30 31  1  0  0  0
 31 32  2  0  0  0
 31 28  1  0  0  0
 28  1  1  0  0  0
  1  2  1  0  0  0
  3  2  1  0  0  0
  3  4  1  0  0  0
  4  5  2  0  0  0
  4  6  1  0  0  0
  6 18  1  0  0  0
 18 19  2  0  0  0
 19 20  1  0  0  0
 20 21  2  0  0  0
 21 22  1  0  0  0
 22 23  2  0  0  0
 23 24  1  0  0  0
 24 25  2  0  0  0
 25 26  1  0  0  0
 26 27  2  0  0  0
  6  7  1  0  0  0
  7  8  1  0  0  0
  8 34  1  0  0  0
 34 35  1  0  0  0
 35 37  1  0  0  0
 37 38  2  0  0  0
 38 39  1  0  0  0
 39 40  2  0  0  0
 40 41  1  0  0  0
 41 42  1  0  0  0
 41 43  2  0  0  0
  3  9  1  0  0  0
  9 10  2  0  0  0
 10 11  1  0  0  0
 11 12  1  0  0  0
 11 13  2  0  0  0
 13 14  1  0  0  0
 14 15  2  0  0  0
 15 16  1  0  0  0
 16 17  2  0  0  0
 16  1  1  0  0  0
  8  3  1  0  0  0
 43 37  1  0  0  0
 15  9  1  0  0  0
 27 18  1  0  0  0
 27 22  1  0  0  0
 30 33  1  0  0  0
 35 36  1  0  0  0
M  END
> <minimizedAffinity>
-8.70732

> <CNNscore>
0.1682237387

> <CNNaffinity>
6.8124833107

> <CNN_VS>
1.1460213661

> <CNNaffinity_variance>
0.1916050464

$$$$



 43 48  0  0  0  0  0  0  0  0999 V2000
   10.1552    0.8296   23.1942 N   0  0  0  0  0  0  0  0  0  0  0  0
    8.7860    0.2569   23.4117 C   0  0  0  0  0  0  0  0  0  0  0  0
    8.6048   -0.9351   24.3039 C   0  0  0  0  0  0  0  0  0  0  0  0
    8.2701   -2.1179   25.1637 C   0  0  0  0  0  0  0  0  0  0  0  0
    8.8171   -2.9307   25.8824 O   0  0  0  0  0  0  0  0  0  0  0  0
    6.7884   -2.3394   25.0910 N   0  0  0  0  0  0  0  0  0  0  0  0
    6.2072   -1.2935   24.1864 C   0  0  0  0  0  0  0  0  0  0  0  0
    7.3298   -0.4257   23.7000 C   0  0  0  0  0  0  0  0  0  0  0  0
    9.7927   -1.5546   24.9786 C   0  0  0  0  0  0  0  0  0  0  0  0
    9.6114   -2.7467   25.8708 C   0  0  0  0  0  0  0  0  0  0  0  0
   10.7994   -3.3660   26.5454 C   0  0  0  0  0  0  0  0  0  0  0  0
   10.6181   -4.5582   27.4377 Cl  0  0  0  0  0  0  0  0  0  0  0  0
   12.1685   -2.7933   26.3279 C   0  0  0  0  0  0  0  0  0  0  0  0
   12.3498   -1.6012   25.4357 C   0  0  0  0  0  0  0  0  0  0  0  0
   11.1619   -0.9819   24.7611 C   0  0  0  0  0  0  0  0  0  0  0  0
   11.3431    0.2103   23.8688 C   0  0  0  0  0  0  0  0  0  0  0  0
   12.7123    0.7830   23.6513 O   0  0  0  0  0  0  0  0  0  0  0  0
    6.0223   -3.4175   25.7988 C   0  0  0  0  0  0  0  0  0  0  0  0
    5.7110   -4.7036   25.0923 C   0  0  0  0  0  0  0  0  0  0  0  0
    4.9449   -5.7816   25.8001 N   0  0  0  0  0  0  0  0  0  0  0  0
    4.4902   -5.5736   27.2143 C   0  0  0  0  0  0  0  0  0  0  0  0
    4.8016   -4.2875   27.9207 C   0  0  0  0  0  0  0  0  0  0  0  0
    4.3468   -4.0795   29.3350 C   0  0  0  0  0  0  0  0  0  0  0  0
    4.6582   -2.7934   30.0413 C   0  0  0  0  0  0  0  0  0  0  0  0
    5.4243   -1.7153   29.3336 C   0  0  0  0  0  0  0  0  0  0  0  0
    5.8790   -1.9233   27.9194 C   0  0  0  0  0  0  0  0  0  0  0  0
    5.5676   -3.2094   27.2130 C   0  0  0  0  0  0  0  0  0  0  0  0
   10.3364    2.0218   22.3019 C   0  0  0  0  0  0  0  0  0  0  0  0
   10.3837    5.9163   23.0639 C   0  0  0  0  0  0  0  0  0  0  0  0
   10.8166    4.5579   22.5978 N   0  0  0  0  0  0  0  0  0  0  0  0
    9.9035    3.3802   22.7681 C   0  0  0  0  0  0  0  0  0  0  0  0
    8.5572    3.5608   23.4046 O   0  0  0  0  0  0  0  0  0  0  0  0
   11.7002    4.4393   22.1800 H   0  0  0  0  0  0  0  0  0  0  0  0
    7.2001    0.7460   22.7724 C   0  0  0  0  0  0  0  0  0  0  0  0
    6.0052    1.6479   22.8657 N   0  0  0  0  0  0  0  0  0  0  0  0
    5.9033    2.2518   23.6365 H   0  0  0  0  0  0  0  0  0  0  0  0
    4.9655    1.6297   21.7847 C   0  0  0  0  0  0  0  0  0  0  0  0
    3.5302    1.9084   22.1198 C   0  0  0  0  0  0  0  0  0  0  0  0
    2.4905    1.8902   21.0388 C   0  0  0  0  0  0  0  0  0  0  0  0
    2.8860    1.5934   19.6226 N   0  0  0  0  0  0  0  0  0  0  0  0
    4.3213    1.3147   19.2875 C   0  0  0  0  0  0  0  0  0  0  0  0
    4.7168    1.0179   17.8714 C   0  0  0  0  0  0  0  0  0  0  0  0
    5.3610    1.3329   20.3686 N   0  0  0  0  0  0  0  0  0  0  0  0
 29 30  1  0  0  0
 30 31  1  0  0  0
 31 32  2  0  0  0
 31 28  1  0  0  0
 28  1  1  0  0  0
  1  2  1  0  0  0
  3  2  1  0  0  0
  3  4  1  0  0  0
  4  5  2  0  0  0
  4  6  1  0  0  0
  6 18  1  0  0  0
 18 19  2  0  0  0
 19 20  1  0  0  0
 20 21  2  0  0  0
 21 22  1  0  0  0
 22 23  2  0  0  0
 23 24  1  0  0  0
 24 25  2  0  0  0
 25 26  1  0  0  0
 26 27  2  0  0  0
  6  7  1  0  0  0
  7  8  1  0  0  0
  8 34  1  0  0  0
 34 35  1  0  0  0
 35 37  1  0  0  0
 37 38  2  0  0  0
 38 39  1  0  0  0
 39 40  2  0  0  0
 40 41  1  0  0  0
 41 42  1  0  0  0
 41 43  2  0  0  0
  3  9  1  0  0  0
  9 10  2  0  0  0
 10 11  1  0  0  0
 11 12  1  0  0  0
 11 13  2  0  0  0
 13 14  1  0  0  0
 14 15  2  0  0  0
 15 16  1  0  0  0
 16 17  2  0  0  0
 16  1  1  0  0  0
  8  3  1  0  0  0
 43 37  1  0  0  0
 15  9  1  0  0  0
 27 18  1  0  0  0
 27 22  1  0  0  0
 30 33  1  0  0  0
 35 36  1  0  0  0
M  END
> <minimizedAffinity>
-8.55517

> <CNNscore>
0.1401470602

> <CNNaffinity>
6.8537244797

> <CNN_VS>
0.9605293274

> <CNNaffinity_variance>
0.1425881684

$$$$



 43 48  0  0  0  0  0  0  0  0999 V2000
   10.8965    1.0415   23.2507 N   0  0  0  0  0  0  0  0  0  0  0  0
    9.4827    0.7548   23.6616 C   0  0  0  0  0  0  0  0  0  0  0  0
    9.1839   -0.4087   24.5599 C   0  0  0  0  0  0  0  0  0  0  0  0
    8.7342   -1.5302   25.4487 C   0  0  0  0  0  0  0  0  0  0  0  0
    9.1949   -2.4659   26.0720 O   0  0  0  0  0  0  0  0  0  0  0  0
    7.2439   -1.4388   25.5923 N   0  0  0  0  0  0  0  0  0  0  0  0
    6.7725   -0.2608   24.7922 C   0  0  0  0  0  0  0  0  0  0  0  0
    7.9715    0.3758   24.1542 C   0  0  0  0  0  0  0  0  0  0  0  0
   10.2991   -1.2856   25.0474 C   0  0  0  0  0  0  0  0  0  0  0  0
   10.0004   -2.4490   25.9457 C   0  0  0  0  0  0  0  0  0  0  0  0
   11.1155   -3.3259   26.4331 C   0  0  0  0  0  0  0  0  0  0  0  0
   10.8168   -4.4894   27.3315 Cl  0  0  0  0  0  0  0  0  0  0  0  0
   12.5294   -3.0392   26.0222 C   0  0  0  0  0  0  0  0  0  0  0  0
   12.8281   -1.8757   25.1239 C   0  0  0  0  0  0  0  0  0  0  0  0
   11.7130   -0.9989   24.6365 C   0  0  0  0  0  0  0  0  0  0  0  0
   12.0117    0.1647   23.7381 C   0  0  0  0  0  0  0  0  0  0  0  0
   13.4255    0.4513   23.3272 O   0  0  0  0  0  0  0  0  0  0  0  0
    6.3771   -2.3631   26.3950 C   0  0  0  0  0  0  0  0  0  0  0  0
    6.0015   -2.0057   27.8025 C   0  0  0  0  0  0  0  0  0  0  0  0
    5.1348   -2.9301   28.6052 N   0  0  0  0  0  0  0  0  0  0  0  0
    4.6437   -4.2118   28.0004 C   0  0  0  0  0  0  0  0  0  0  0  0
    5.0193   -4.5692   26.5928 C   0  0  0  0  0  0  0  0  0  0  0  0
    4.5281   -5.8511   25.9880 C   0  0  0  0  0  0  0  0  0  0  0  0
    4.9038   -6.2084   24.5804 C   0  0  0  0  0  0  0  0  0  0  0  0
    5.7705   -5.2841   23.7777 C   0  0  0  0  0  0  0  0  0  0  0  0
    6.2616   -4.0023   24.3826 C   0  0  0  0  0  0  0  0  0  0  0  0
    5.8860   -3.6449   25.7901 C   0  0  0  0  0  0  0  0  0  0  0  0
   11.1952    2.2051   22.3523 C   0  0  0  0  0  0  0  0  0  0  0  0
   10.0459    5.9078   23.1999 C   0  0  0  0  0  0  0  0  0  0  0  0
   10.0410    4.5141   22.6453 N   0  0  0  0  0  0  0  0  0  0  0  0
   11.2001    3.5988   22.9068 C   0  0  0  0  0  0  0  0  0  0  0  0
   12.3643    4.0772   23.7229 O   0  0  0  0  0  0  0  0  0  0  0  0
    9.2769    4.2001   22.1097 H   0  0  0  0  0  0  0  0  0  0  0  0
    7.9601    1.5848   23.2663 C   0  0  0  0  0  0  0  0  0  0  0  0
    8.0742    1.4244   21.7793 N   0  0  0  0  0  0  0  0  0  0  0  0
    8.8103    1.8604   21.2923 H   0  0  0  0  0  0  0  0  0  0  0  0
    7.0668    0.5997   21.0344 C   0  0  0  0  0  0  0  0  0  0  0  0
    6.5912   -0.7020   21.6083 C   0  0  0  0  0  0  0  0  0  0  0  0
    5.5839   -1.5267   20.8634 C   0  0  0  0  0  0  0  0  0  0  0  0
    5.0519   -1.0497   19.5444 N   0  0  0  0  0  0  0  0  0  0  0  0
    5.5275    0.2520   18.9705 C   0  0  0  0  0  0  0  0  0  0  0  0
    4.9956    0.7290   17.6516 C   0  0  0  0  0  0  0  0  0  0  0  0
    6.5349    1.0767   19.7154 N   0  0  0  0  0  0  0  0  0  0  0  0
 29 30  1  0  0  0
 30 31  1  0  0  0
 31 32  2  0  0  0
 31 28  1  0  0  0
 28  1  1  0  0  0
  1  2  1  0  0  0
  3  2  1  0  0  0
  3  4  1  0  0  0
  4  5  2  0  0  0
  4  6  1  0  0  0
  6 18  1  0  0  0
 18 19  2  0  0  0
 19 20  1  0  0  0
 20 21  2  0  0  0
 21 22  1  0  0  0
 22 23  2  0  0  0
 23 24  1  0  0  0
 24 25  2  0  0  0
 25 26  1  0  0  0
 26 27  2  0  0  0
  6  7  1  0  0  0
  7  8  1  0  0  0
  8 34  1  0  0  0
 34 35  1  0  0  0
 35 37  1  0  0  0
 37 38  2  0  0  0
 38 39  1  0  0  0
 39 40  2  0  0  0
 40 41  1  0  0  0
 41 42  1  0  0  0
 41 43  2  0  0  0
  3  9  1  0  0  0
  9 10  2  0  0  0
 10 11  1  0  0  0
 11 12  1  0  0  0
 11 13  2  0  0  0
 13 14  1  0  0  0
 14 15  2  0  0  0
 15 16  1  0  0  0
 16 17  2  0  0  0
 16  1  1  0  0  0
  8  3  1  0  0  0
 43 37  1  0  0  0
 15  9  1  0  0  0
 27 18  1  0  0  0
 27 22  1  0  0  0
 30 33  1  0  0  0
 35 36  1  0  0  0
M  END
> <minimizedAffinity>
-9.26508

> <CNNscore>
0.1246378943

> <CNNaffinity>
6.8842849731

> <CNN_VS>
0.8580427766

> <CNNaffinity_variance>
0.2836301029

$$$$



 43 48  0  0  0  0  0  0  0  0999 V2000
    5.4714    3.9246   23.2345 N   0  0  0  0  0  0  0  0  0  0  0  0
    6.1105    2.5809   23.4242 C   0  0  0  0  0  0  0  0  0  0  0  0
    7.6053    2.4555   23.4303 C   0  0  0  0  0  0  0  0  0  0  0  0
    9.0787    2.1762   23.4589 C   0  0  0  0  0  0  0  0  0  0  0  0
   10.1391    2.7619   23.3653 O   0  0  0  0  0  0  0  0  0  0  0  0
    9.2673    0.7032   23.6710 N   0  0  0  0  0  0  0  0  0  0  0  0
    7.9103    0.0722   23.7735 C   0  0  0  0  0  0  0  0  0  0  0  0
    6.8832    1.1552   23.6247 C   0  0  0  0  0  0  0  0  0  0  0  0
    8.4609    3.6738   23.2466 C   0  0  0  0  0  0  0  0  0  0  0  0
    9.9556    3.5484   23.2527 C   0  0  0  0  0  0  0  0  0  0  0  0
   10.8111    4.7667   23.0691 C   0  0  0  0  0  0  0  0  0  0  0  0
   12.3059    4.6414   23.0752 Cl  0  0  0  0  0  0  0  0  0  0  0  0
   10.1720    6.1104   22.8794 C   0  0  0  0  0  0  0  0  0  0  0  0
    8.6773    6.2358   22.8733 C   0  0  0  0  0  0  0  0  0  0  0  0
    7.8217    5.0175   23.0569 C   0  0  0  0  0  0  0  0  0  0  0  0
    6.3269    5.1429   23.0508 C   0  0  0  0  0  0  0  0  0  0  0  0
    5.6878    6.4866   22.8611 O   0  0  0  0  0  0  0  0  0  0  0  0
   10.5820   -0.0129   23.7642 C   0  0  0  0  0  0  0  0  0  0  0  0
   11.7444    0.4417   22.9321 C   0  0  0  0  0  0  0  0  0  0  0  0
   13.0591   -0.2745   23.0253 N   0  0  0  0  0  0  0  0  0  0  0  0
   13.2114   -1.4452   23.9506 C   0  0  0  0  0  0  0  0  0  0  0  0
   12.0490   -1.8997   24.7827 C   0  0  0  0  0  0  0  0  0  0  0  0
   12.2014   -3.0705   25.7081 C   0  0  0  0  0  0  0  0  0  0  0  0
   11.0390   -3.5250   26.5401 C   0  0  0  0  0  0  0  0  0  0  0  0
    9.7243   -2.8089   26.4469 C   0  0  0  0  0  0  0  0  0  0  0  0
    9.5720   -1.6382   25.5216 C   0  0  0  0  0  0  0  0  0  0  0  0
   10.7344   -1.1836   24.6895 C   0  0  0  0  0  0  0  0  0  0  0  0
    3.9766    4.0499   23.2284 C   0  0  0  0  0  0  0  0  0  0  0  0
    2.2840    3.4076   19.6968 C   0  0  0  0  0  0  0  0  0  0  0  0
    3.0108    3.1623   20.9858 N   0  0  0  0  0  0  0  0  0  0  0  0
    3.2498    4.2952   21.9394 C   0  0  0  0  0  0  0  0  0  0  0  0
    2.7619    5.6735   21.6040 O   0  0  0  0  0  0  0  0  0  0  0  0
    3.3310    2.2578   21.2059 H   0  0  0  0  0  0  0  0  0  0  0  0
    5.3951    0.9703   23.6636 C   0  0  0  0  0  0  0  0  0  0  0  0
    4.7189    0.1121   22.6360 N   0  0  0  0  0  0  0  0  0  0  0  0
    3.9043   -0.3883   22.8715 H   0  0  0  0  0  0  0  0  0  0  0  0
    5.2835    0.0162   21.2497 C   0  0  0  0  0  0  0  0  0  0  0  0
    6.5222   -0.7916   20.9986 C   0  0  0  0  0  0  0  0  0  0  0  0
    7.0868   -0.8875   19.6123 C   0  0  0  0  0  0  0  0  0  0  0  0
    6.4128   -0.1757   18.4769 N   0  0  0  0  0  0  0  0  0  0  0  0
    5.1741    0.6321   18.7280 C   0  0  0  0  0  0  0  0  0  0  0  0
    4.5000    1.3439   17.5928 C   0  0  0  0  0  0  0  0  0  0  0  0
    4.6094    0.7280   20.1144 N   0  0  0  0  0  0  0  0  0  0  0  0
 29 30  1  0  0  0
 30 31  1  0  0  0
 31 32  2  0  0  0
 31 28  1  0  0  0
 28  1  1  0  0  0
  1  2  1  0  0  0
  3  2  1  0  0  0
  3  4  1  0  0  0
  4  5  2  0  0  0
  4  6  1  0  0  0
  6 18  1  0  0  0
 18 19  2  0  0  0
 19 20  1  0  0  0
 20 21  2  0  0  0
 21 22  1  0  0  0
 22 23  2  0  0  0
 23 24  1  0  0  0
 24 25  2  0  0  0
 25 26  1  0  0  0
 26 27  2  0  0  0
  6  7  1  0  0  0
  7  8  1  0  0  0
  8 34  1  0  0  0
 34 35  1  0  0  0
 35 37  1  0  0  0
 37 38  2  0  0  0
 38 39  1  0  0  0
 39 40  2  0  0  0
 40 41  1  0  0  0
 41 42  1  0  0  0
 41 43  2  0  0  0
  3  9  1  0  0  0
  9 10  2  0  0  0
 10 11  1  0  0  0
 11 12  1  0  0  0
 11 13  2  0  0  0
 13 14  1  0  0  0
 14 15  2  0  0  0
 15 16  1  0  0  0
 16 17  2  0  0  0
 16  1  1  0  0  0
  8  3  1  0  0  0
 43 37  1  0  0  0
 15  9  1  0  0  0
 27 18  1  0  0  0
 27 22  1  0  0  0
 30 33  1  0  0  0
 35 36  1  0  0  0
M  END
> <minimizedAffinity>
-8.29532

> <CNNscore>
0.1067781001

> <CNNaffinity>
6.4070024490

> <CNN_VS>
0.6841275692

> <CNNaffinity_variance>
0.2996552289

$$$$



 43 48  0  0  0  0  0  0  0  0999 V2000
   10.5494    1.1924   23.1602 N   0  0  0  0  0  0  0  0  0  0  0  0
    9.1763    0.8394   23.6501 C   0  0  0  0  0  0  0  0  0  0  0  0
    8.9813   -0.3503   24.5426 C   0  0  0  0  0  0  0  0  0  0  0  0
    8.6334   -1.5042   25.4356 C   0  0  0  0  0  0  0  0  0  0  0  0
    9.1696   -2.4296   26.0122 O   0  0  0  0  0  0  0  0  0  0  0  0
    7.1521   -1.4785   25.6704 N   0  0  0  0  0  0  0  0  0  0  0  0
    6.5845   -0.3086   24.9226 C   0  0  0  0  0  0  0  0  0  0  0  0
    7.7150    0.3887   24.2256 C   0  0  0  0  0  0  0  0  0  0  0  0
   10.1594   -1.1869   24.9453 C   0  0  0  0  0  0  0  0  0  0  0  0
    9.9644   -2.3766   25.8379 C   0  0  0  0  0  0  0  0  0  0  0  0
   11.1425   -3.2131   26.2405 C   0  0  0  0  0  0  0  0  0  0  0  0
   10.9476   -4.4029   27.1331 Cl  0  0  0  0  0  0  0  0  0  0  0  0
   12.5156   -2.8601   25.7506 C   0  0  0  0  0  0  0  0  0  0  0  0
   12.7106   -1.6705   24.8580 C   0  0  0  0  0  0  0  0  0  0  0  0
   11.5325   -0.8339   24.4554 C   0  0  0  0  0  0  0  0  0  0  0  0
   11.7275    0.3558   23.5628 C   0  0  0  0  0  0  0  0  0  0  0  0
   13.1005    0.7089   23.0729 O   0  0  0  0  0  0  0  0  0  0  0  0
    6.3749   -2.4518   26.5063 C   0  0  0  0  0  0  0  0  0  0  0  0
    6.1733   -2.1900   27.9695 C   0  0  0  0  0  0  0  0  0  0  0  0
    5.3961   -3.1633   28.8054 N   0  0  0  0  0  0  0  0  0  0  0  0
    4.8206   -4.3983   28.1781 C   0  0  0  0  0  0  0  0  0  0  0  0
    5.0223   -4.6600   26.7150 C   0  0  0  0  0  0  0  0  0  0  0  0
    4.4467   -5.8952   26.0877 C   0  0  0  0  0  0  0  0  0  0  0  0
    4.6485   -6.1568   24.6245 C   0  0  0  0  0  0  0  0  0  0  0  0
    5.4256   -5.1836   23.7886 C   0  0  0  0  0  0  0  0  0  0  0  0
    6.0011   -3.9485   24.4159 C   0  0  0  0  0  0  0  0  0  0  0  0
    5.7994   -3.6868   25.8791 C   0  0  0  0  0  0  0  0  0  0  0  0
   10.7443    2.3821   22.2676 C   0  0  0  0  0  0  0  0  0  0  0  0
   10.2237    6.1552   23.3825 C   0  0  0  0  0  0  0  0  0  0  0  0
    9.9608    4.8045   22.7853 N   0  0  0  0  0  0  0  0  0  0  0  0
   11.0072    3.7328   22.8648 C   0  0  0  0  0  0  0  0  0  0  0  0
   12.3165    4.0116   23.5416 O   0  0  0  0  0  0  0  0  0  0  0  0
    9.1015    4.6215   22.3411 H   0  0  0  0  0  0  0  0  0  0  0  0
    7.5994    1.6104   23.3630 C   0  0  0  0  0  0  0  0  0  0  0  0
    7.2329    2.9294   23.9760 N   0  0  0  0  0  0  0  0  0  0  0  0
    7.6804    3.7531   23.6754 H   0  0  0  0  0  0  0  0  0  0  0  0
    6.1845    2.9933   25.0468 C   0  0  0  0  0  0  0  0  0  0  0  0
    4.7335    3.0626   24.6727 C   0  0  0  0  0  0  0  0  0  0  0  0
    3.6852    3.1266   25.7435 C   0  0  0  0  0  0  0  0  0  0  0  0
    4.0876    3.1213   27.1886 N   0  0  0  0  0  0  0  0  0  0  0  0
    5.5386    3.0520   27.5627 C   0  0  0  0  0  0  0  0  0  0  0  0
    5.9411    3.0468   29.0076 C   0  0  0  0  0  0  0  0  0  0  0  0
    6.5870    2.9881   26.4918 N   0  0  0  0  0  0  0  0  0  0  0  0
 29 30  1  0  0  0
 30 31  1  0  0  0
 31 32  2  0  0  0
 31 28  1  0  0  0
 28  1  1  0  0  0
  1  2  1  0  0  0
  3  2  1  0  0  0
  3  4  1  0  0  0
  4  5  2  0  0  0
  4  6  1  0  0  0
  6 18  1  0  0  0
 18 19  2  0  0  0
 19 20  1  0  0  0
 20 21  2  0  0  0
 21 22  1  0  0  0
 22 23  2  0  0  0
 23 24  1  0  0  0
 24 25  2  0  0  0
 25 26  1  0  0  0
 26 27  2  0  0  0
  6  7  1  0  0  0
  7  8  1  0  0  0
  8 34  1  0  0  0
 34 35  1  0  0  0
 35 37  1  0  0  0
 37 38  2  0  0  0
 38 39  1  0  0  0
 39 40  2  0  0  0
 40 41  1  0  0  0
 41 42  1  0  0  0
 41 43  2  0  0  0
  3  9  1  0  0  0
  9 10  2  0  0  0
 10 11  1  0  0  0
 11 12  1  0  0  0
 11 13  2  0  0  0
 13 14  1  0  0  0
 14 15  2  0  0  0
 15 16  1  0  0  0
 16 17  2  0  0  0
 16  1  1  0  0  0
  8  3  1  0  0  0
 43 37  1  0  0  0
 15  9  1  0  0  0
 27 18  1  0  0  0
 27 22  1  0  0  0
 30 33  1  0  0  0
 35 36  1  0  0  0
M  END
> <minimizedAffinity>
-7.73455

> <CNNscore>
0.1067003608

> <CNNaffinity>
6.6122069359

> <CNN_VS>
0.7055248618

> <CNNaffinity_variance>
0.6172321439

$$$$



 43 48  0  0  0  0  0  0  0  0999 V2000
   10.9138    1.5092   22.8142 N   0  0  0  0  0  0  0  0  0  0  0  0
    9.5266    1.2381   23.3166 C   0  0  0  0  0  0  0  0  0  0  0  0
    9.2763    0.0850   24.2426 C   0  0  0  0  0  0  0  0  0  0  0  0
    8.8749   -1.0249   25.1684 C   0  0  0  0  0  0  0  0  0  0  0  0
    9.3668   -1.9591   25.7697 O   0  0  0  0  0  0  0  0  0  0  0  0
    7.3975   -0.9195   25.4053 N   0  0  0  0  0  0  0  0  0  0  0  0
    6.8857    0.2555   24.6260 C   0  0  0  0  0  0  0  0  0  0  0  0
    8.0469    0.8764   23.9074 C   0  0  0  0  0  0  0  0  0  0  0  0
   10.4131   -0.7971   24.6664 C   0  0  0  0  0  0  0  0  0  0  0  0
   10.1627   -1.9502   25.5924 C   0  0  0  0  0  0  0  0  0  0  0  0
   11.2995   -2.8323   26.0162 C   0  0  0  0  0  0  0  0  0  0  0  0
   11.0492   -3.9855   26.9423 Cl  0  0  0  0  0  0  0  0  0  0  0  0
   12.6867   -2.5613   25.5138 C   0  0  0  0  0  0  0  0  0  0  0  0
   12.9370   -1.4082   24.5878 C   0  0  0  0  0  0  0  0  0  0  0  0
   11.8003   -0.5261   24.1641 C   0  0  0  0  0  0  0  0  0  0  0  0
   12.0506    0.6271   23.2380 C   0  0  0  0  0  0  0  0  0  0  0  0
   13.4378    0.8981   22.7356 O   0  0  0  0  0  0  0  0  0  0  0  0
    6.5761   -1.8295   26.2698 C   0  0  0  0  0  0  0  0  0  0  0  0
    6.3852   -3.2650   25.8787 C   0  0  0  0  0  0  0  0  0  0  0  0
    5.5638   -4.1750   26.7432 N   0  0  0  0  0  0  0  0  0  0  0  0
    4.9334   -3.6494   27.9987 C   0  0  0  0  0  0  0  0  0  0  0  0
    5.1243   -2.2139   28.3897 C   0  0  0  0  0  0  0  0  0  0  0  0
    4.4938   -1.6883   29.6453 C   0  0  0  0  0  0  0  0  0  0  0  0
    4.6847   -0.2528   30.0362 C   0  0  0  0  0  0  0  0  0  0  0  0
    5.5061    0.6572   29.1717 C   0  0  0  0  0  0  0  0  0  0  0  0
    6.1366    0.1316   27.9163 C   0  0  0  0  0  0  0  0  0  0  0  0
    5.9457   -1.3039   27.5252 C   0  0  0  0  0  0  0  0  0  0  0  0
   11.1641    2.6623   21.8881 C   0  0  0  0  0  0  0  0  0  0  0  0
   10.7206    6.3116   23.3835 C   0  0  0  0  0  0  0  0  0  0  0  0
   10.3911    4.9590   22.8250 N   0  0  0  0  0  0  0  0  0  0  0  0
   11.4936    4.0149   22.4467 C   0  0  0  0  0  0  0  0  0  0  0  0
   12.9257    4.4234   22.6269 O   0  0  0  0  0  0  0  0  0  0  0  0
    9.4513    4.6909   22.7067 H   0  0  0  0  0  0  0  0  0  0  0  0
    7.9888    2.0777   23.0110 C   0  0  0  0  0  0  0  0  0  0  0  0
    6.6720    2.5410   22.4623 N   0  0  0  0  0  0  0  0  0  0  0  0
    6.1736    3.2576   22.9177 H   0  0  0  0  0  0  0  0  0  0  0  0
    6.1143    1.9127   21.2196 C   0  0  0  0  0  0  0  0  0  0  0  0
    6.8766    0.8254   20.5220 C   0  0  0  0  0  0  0  0  0  0  0  0
    6.3190    0.1971   19.2794 C   0  0  0  0  0  0  0  0  0  0  0  0
    4.9991    0.6561   18.7342 N   0  0  0  0  0  0  0  0  0  0  0  0
    4.2368    1.7434   19.4318 C   0  0  0  0  0  0  0  0  0  0  0  0
    2.9169    2.2025   18.8866 C   0  0  0  0  0  0  0  0  0  0  0  0
    4.7945    2.3717   20.6745 N   0  0  0  0  0  0  0  0  0  0  0  0
 29 30  1  0  0  0
 30 31  1  0  0  0
 31 32  2  0  0  0
 31 28  1  0  0  0
 28  1  1  0  0  0
  1  2  1  0  0  0
  3  2  1  0  0  0
  3  4  1  0  0  0
  4  5  2  0  0  0
  4  6  1  0  0  0
  6 18  1  0  0  0
 18 19  2  0  0  0
 19 20  1  0  0  0
 20 21  2  0  0  0
 21 22  1  0  0  0
 22 23  2  0  0  0
 23 24  1  0  0  0
 24 25  2  0  0  0
 25 26  1  0  0  0
 26 27  2  0  0  0
  6  7  1  0  0  0
  7  8  1  0  0  0
  8 34  1  0  0  0
 34 35  1  0  0  0
 35 37  1  0  0  0
 37 38  2  0  0  0
 38 39  1  0  0  0
 39 40  2  0  0  0
 40 41  1  0  0  0
 41 42  1  0  0  0
 41 43  2  0  0  0
  3  9  1  0  0  0
  9 10  2  0  0  0
 10 11  1  0  0  0
 11 12  1  0  0  0
 11 13  2  0  0  0
 13 14  1  0  0  0
 14 15  2  0  0  0
 15 16  1  0  0  0
 16 17  2  0  0  0
 16  1  1  0  0  0
  8  3  1  0  0  0
 43 37  1  0  0  0
 15  9  1  0  0  0
 27 18  1  0  0  0
 27 22  1  0  0  0
 30 33  1  0  0  0
 35 36  1  0  0  0
M  END
> <minimizedAffinity>
-8.95728

> <CNNscore>
0.1034852639

> <CNNaffinity>
6.8408303261

> <CNN_VS>
0.7079251409

> <CNNaffinity_variance>
0.1241915971

$$$$
