


 35 40  0  0  0  0  0  0  0  0999 V2000
    7.4557   -3.3125   23.4114 C   0  0  0  0  0  0  0  0  0  0  0  0
    7.6432   -2.0256   22.6638 C   0  0  0  0  0  0  0  0  0  0  0  0
    6.5399   -1.7834   21.6768 C   0  0  0  0  0  0  0  0  0  0  0  0
    6.8152   -0.4816   20.9841 N   0  0  0  0  0  0  0  0  0  0  0  0
    8.0886    0.0806   21.5430 C   0  0  0  0  0  0  0  0  0  0  0  0
    8.7365    1.3706   21.1354 O   0  0  0  0  0  0  0  0  0  0  0  0
    8.6003   -0.8736   22.5811 C   0  0  0  0  0  0  0  0  0  0  0  0
    9.4635    0.3378   22.3876 C   0  0  0  0  0  0  0  0  0  0  0  0
   10.7130    0.5060   23.2003 N   0  0  0  0  0  0  0  0  0  0  0  0
   11.0993   -0.5372   24.2065 C   0  0  0  0  0  0  0  0  0  0  0  0
   12.3488   -0.3690   25.0191 O   0  0  0  0  0  0  0  0  0  0  0  0
   10.2362   -1.7487   24.4000 C   0  0  0  0  0  0  0  0  0  0  0  0
   10.6226   -2.7919   25.4062 C   0  0  0  0  0  0  0  0  0  0  0  0
    9.7594   -4.0033   25.5997 C   0  0  0  0  0  0  0  0  0  0  0  0
    8.5099   -4.1715   24.7870 C   0  0  0  0  0  0  0  0  0  0  0  0
    7.6468   -5.3829   24.9805 F   0  0  0  0  0  0  0  0  0  0  0  0
    8.1236   -3.1283   23.7808 C   0  0  0  0  0  0  0  0  0  0  0  0
    8.9867   -1.9169   23.5873 C   0  0  0  0  0  0  0  0  0  0  0  0
    5.9661    0.1474   19.9195 C   0  0  0  0  0  0  0  0  0  0  0  0
    6.3189   -0.0358   18.4733 C   0  0  0  0  0  0  0  0  0  0  0  0
    5.4698    0.5932   17.4087 N   0  0  0  0  0  0  0  0  0  0  0  0
    4.2680    1.4055   17.7904 C   0  0  0  0  0  0  0  0  0  0  0  0
    3.9152    1.5888   19.2368 C   0  0  0  0  0  0  0  0  0  0  0  0
    2.7134    2.4011   19.6186 C   0  0  0  0  0  0  0  0  0  0  0  0
    2.3607    2.5843   21.0650 C   0  0  0  0  0  0  0  0  0  0  0  0
    3.2097    1.9553   22.1295 C   0  0  0  0  0  0  0  0  0  0  0  0
    4.4115    1.1430   21.7477 C   0  0  0  0  0  0  0  0  0  0  0  0
    4.7643    0.9597   20.3014 C   0  0  0  0  0  0  0  0  0  0  0  0
   11.5761    1.7174   23.0067 C   0  0  0  0  0  0  0  0  0  0  0  0
   10.9602    3.0851   23.0077 C   0  0  0  0  0  0  0  0  0  0  0  0
   11.7961    4.2844   22.6720 N   0  0  0  0  0  0  0  0  0  0  0  0
   11.1802    5.6521   22.6730 C   0  0  0  0  0  0  0  0  0  0  0  0
    9.7282    5.8205   23.0098 C   0  0  0  0  0  0  0  0  0  0  0  0
    8.8922    4.6212   23.3455 C   0  0  0  0  0  0  0  0  0  0  0  0
    9.5082    3.2534   23.3445 N   0  0  0  0  0  0  0  0  0  0  0  0
  2  1  1  0  0  0
  2  3  1  0  0  0
  3  4  1  0  0  0
  4 19  1  0  0  0
 19 20  2  0  0  0
 20 21  1  0  0  0
 21 22  2  0  0  0
 22 23  1  0  0  0
 23 24  2  0  0  0
 24 25  1  0  0  0
 25 26  2  0  0  0
 26 27  1  0  0  0
 27 28  2  0  0  0
  4  5  1  0  0  0
  5  6  2  0  0  0
  5  7  1  0  0  0
  7  8  1  0  0  0
  8  9  1  0  0  0
  9 29  1  0  0  0
 29 30  1  0  0  0
 30 31  2  0  0  0
 31 32  1  0  0  0
 32 33  2  0  0  0
 33 34  1  0  0  0
 34 35  2  0  0  0
  9 10  1  0  0  0
 10 11  2  0  0  0
 10 12  1  0  0  0
 12 13  2  0  0  0
 13 14  1  0  0  0
 14 15  2  0  0  0
 15 16  1  0  0  0
 15 17  1  0  0  0
 17 18  2  0  0  0
  7  2  1  0  0  0
 35 30  1  0  0  0
 18 12  1  0  0  0
 28 19  1  0  0  0
 18  7  1  0  0  0
 28 23  1  0  0  0
M  END
> <minimizedAffinity>
-9.50776

> <CNNscore>
0.5870353580

> <CNNaffinity>
6.9219827652

> <CNN_VS>
4.0634484291

> <CNNaffinity_variance>
0.0397906229

$$$$



 35 40  0  0  0  0  0  0  0  0999 V2000
    9.1654   -0.9173   23.6694 C   0  0  0  0  0  0  0  0  0  0  0  0
    7.9971   -1.3212   22.8196 C   0  0  0  0  0  0  0  0  0  0  0  0
    7.5911   -0.2340   21.8692 C   0  0  0  0  0  0  0  0  0  0  0  0
    6.4233   -0.7301   21.0691 N   0  0  0  0  0  0  0  0  0  0  0  0
    6.1076   -2.1238   21.5251 C   0  0  0  0  0  0  0  0  0  0  0  0
    5.0116   -2.9986   20.9926 O   0  0  0  0  0  0  0  0  0  0  0  0
    7.0803   -2.4891   22.6070 C   0  0  0  0  0  0  0  0  0  0  0  0
    6.0927   -3.5709   22.2838 C   0  0  0  0  0  0  0  0  0  0  0  0
    6.1401   -4.8751   23.0231 N   0  0  0  0  0  0  0  0  0  0  0  0
    7.1752   -5.0977   24.0857 C   0  0  0  0  0  0  0  0  0  0  0  0
    7.2227   -6.4019   24.8250 O   0  0  0  0  0  0  0  0  0  0  0  0
    8.1629   -4.0159   24.4089 C   0  0  0  0  0  0  0  0  0  0  0  0
    9.1979   -4.2384   25.4715 C   0  0  0  0  0  0  0  0  0  0  0  0
   10.1855   -3.1567   25.7947 C   0  0  0  0  0  0  0  0  0  0  0  0
   10.1381   -1.8525   25.0553 C   0  0  0  0  0  0  0  0  0  0  0  0
   11.1257   -0.7707   25.3786 F   0  0  0  0  0  0  0  0  0  0  0  0
    9.1030   -1.6299   23.9928 C   0  0  0  0  0  0  0  0  0  0  0  0
    8.1154   -2.7116   23.6696 C   0  0  0  0  0  0  0  0  0  0  0  0
    5.6984    0.0335   20.0007 C   0  0  0  0  0  0  0  0  0  0  0  0
    6.1622   -0.0458   18.5765 C   0  0  0  0  0  0  0  0  0  0  0  0
    5.4374    0.7178   17.5081 N   0  0  0  0  0  0  0  0  0  0  0  0
    4.2487    1.5606   17.8640 C   0  0  0  0  0  0  0  0  0  0  0  0
    3.7849    1.6398   19.2883 C   0  0  0  0  0  0  0  0  0  0  0  0
    2.5961    2.4827   19.6441 C   0  0  0  0  0  0  0  0  0  0  0  0
    2.1323    2.5619   21.0684 C   0  0  0  0  0  0  0  0  0  0  0  0
    2.8572    1.7983   22.1368 C   0  0  0  0  0  0  0  0  0  0  0  0
    4.0459    0.9555   21.7809 C   0  0  0  0  0  0  0  0  0  0  0  0
    4.5097    0.8763   20.3567 C   0  0  0  0  0  0  0  0  0  0  0  0
    5.1525   -5.9569   22.6999 C   0  0  0  0  0  0  0  0  0  0  0  0
    3.8810   -6.0712   23.4873 C   0  0  0  0  0  0  0  0  0  0  0  0
    2.6778   -6.7278   22.8779 N   0  0  0  0  0  0  0  0  0  0  0  0
    1.4063   -6.8422   23.6653 C   0  0  0  0  0  0  0  0  0  0  0  0
    1.3378   -6.3000   25.0623 C   0  0  0  0  0  0  0  0  0  0  0  0
    2.5410   -5.6434   25.6717 C   0  0  0  0  0  0  0  0  0  0  0  0
    3.8125   -5.5290   24.8842 N   0  0  0  0  0  0  0  0  0  0  0  0
  2  1  1  0  0  0
  2  3  1  0  0  0
  3  4  1  0  0  0
  4 19  1  0  0  0
 19 20  2  0  0  0
 20 21  1  0  0  0
 21 22  2  0  0  0
 22 23  1  0  0  0
 23 24  2  0  0  0
 24 25  1  0  0  0
 25 26  2  0  0  0
 26 27  1  0  0  0
 27 28  2  0  0  0
  4  5  1  0  0  0
  5  6  2  0  0  0
  5  7  1  0  0  0
  7  8  1  0  0  0
  8  9  1  0  0  0
  9 29  1  0  0  0
 29 30  1  0  0  0
 30 31  2  0  0  0
 31 32  1  0  0  0
 32 33  2  0  0  0
 33 34  1  0  0  0
 34 35  2  0  0  0
  9 10  1  0  0  0
 10 11  2  0  0  0
 10 12  1  0  0  0
 12 13  2  0  0  0
 13 14  1  0  0  0
 14 15  2  0  0  0
 15 16  1  0  0  0
 15 17  1  0  0  0
 17 18  2  0  0  0
  7  2  1  0  0  0
 35 30  1  0  0  0
 18 12  1  0  0  0
 28 19  1  0  0  0
 18  7  1  0  0  0
 28 23  1  0  0  0
M  END
> <minimizedAffinity>
-8.36757

> <CNNscore>
0.4554819465

> <CNNaffinity>
6.5994806290

> <CNN_VS>
3.0059442520

> <CNNaffinity_variance>
0.0249538198

$$$$



 35 40  0  0  0  0  0  0  0  0999 V2000
   10.9622   -3.3578   26.1221 C   0  0  0  0  0  0  0  0  0  0  0  0
    9.5757   -2.8781   25.8096 C   0  0  0  0  0  0  0  0  0  0  0  0
    8.5256   -3.7871   26.3762 C   0  0  0  0  0  0  0  0  0  0  0  0
    7.1824   -3.2267   26.0130 N   0  0  0  0  0  0  0  0  0  0  0  0
    7.4024   -1.9714   25.2219 C   0  0  0  0  0  0  0  0  0  0  0  0
    6.3314   -1.0869   24.6559 O   0  0  0  0  0  0  0  0  0  0  0  0
    8.8815   -1.7560   25.0961 C   0  0  0  0  0  0  0  0  0  0  0  0
    8.0522   -0.7018   24.4247 C   0  0  0  0  0  0  0  0  0  0  0  0
    8.7200    0.4361   23.7109 N   0  0  0  0  0  0  0  0  0  0  0  0
   10.2170    0.5197   23.6686 C   0  0  0  0  0  0  0  0  0  0  0  0
   10.8847    1.6575   22.9548 O   0  0  0  0  0  0  0  0  0  0  0  0
   11.0464   -0.5345   24.3400 C   0  0  0  0  0  0  0  0  0  0  0  0
   12.5434   -0.4509   24.2977 C   0  0  0  0  0  0  0  0  0  0  0  0
   13.3727   -1.5051   24.9691 C   0  0  0  0  0  0  0  0  0  0  0  0
   12.7050   -2.6429   25.6829 C   0  0  0  0  0  0  0  0  0  0  0  0
   13.5344   -3.6971   26.3544 F   0  0  0  0  0  0  0  0  0  0  0  0
   11.2080   -2.7265   25.7253 C   0  0  0  0  0  0  0  0  0  0  0  0
   10.3787   -1.6724   25.0538 C   0  0  0  0  0  0  0  0  0  0  0  0
    5.8527   -3.8178   26.3769 C   0  0  0  0  0  0  0  0  0  0  0  0
    5.0817   -4.6105   25.3635 C   0  0  0  0  0  0  0  0  0  0  0  0
    3.7520   -5.2016   25.7275 N   0  0  0  0  0  0  0  0  0  0  0  0
    3.1934   -5.0000   27.1049 C   0  0  0  0  0  0  0  0  0  0  0  0
    3.9645   -4.2073   28.1183 C   0  0  0  0  0  0  0  0  0  0  0  0
    3.4058   -4.0057   29.4958 C   0  0  0  0  0  0  0  0  0  0  0  0
    4.1770   -3.2130   30.5092 C   0  0  0  0  0  0  0  0  0  0  0  0
    5.5066   -2.6220   30.1452 C   0  0  0  0  0  0  0  0  0  0  0  0
    6.0652   -2.8235   28.7678 C   0  0  0  0  0  0  0  0  0  0  0  0
    5.2942   -3.6162   27.7544 C   0  0  0  0  0  0  0  0  0  0  0  0
    7.8906    1.4903   23.0394 C   0  0  0  0  0  0  0  0  0  0  0  0
    7.5663    2.7634   23.7633 C   0  0  0  0  0  0  0  0  0  0  0  0
    6.8183    2.7176   25.0627 N   0  0  0  0  0  0  0  0  0  0  0  0
    6.4940    3.9907   25.7866 C   0  0  0  0  0  0  0  0  0  0  0  0
    6.9176    5.3096   25.2111 C   0  0  0  0  0  0  0  0  0  0  0  0
    7.6656    5.3553   23.9117 C   0  0  0  0  0  0  0  0  0  0  0  0
    7.9899    4.0821   23.1878 N   0  0  0  0  0  0  0  0  0  0  0  0
  2  1  1  0  0  0
  2  3  1  0  0  0
  3  4  1  0  0  0
  4 19  1  0  0  0
 19 20  2  0  0  0
 20 21  1  0  0  0
 21 22  2  0  0  0
 22 23  1  0  0  0
 23 24  2  0  0  0
 24 25  1  0  0  0
 25 26  2  0  0  0
 26 27  1  0  0  0
 27 28  2  0  0  0
  4  5  1  0  0  0
  5  6  2  0  0  0
  5  7  1  0  0  0
  7  8  1  0  0  0
  8  9  1  0  0  0
  9 29  1  0  0  0
 29 30  1  0  0  0
 30 31  2  0  0  0
 31 32  1  0  0  0
 32 33  2  0  0  0
 33 34  1  0  0  0
 34 35  2  0  0  0
  9 10  1  0  0  0
 10 11  2  0  0  0
 10 12  1  0  0  0
 12 13  2  0  0  0
 13 14  1  0  0  0
 14 15  2  0  0  0
 15 16  1  0  0  0
 15 17  1  0  0  0
 17 18  2  0  0  0
  7  2  1  0  0  0
 35 30  1  0  0  0
 18 12  1  0  0  0
 28 19  1  0  0  0
 18  7  1  0  0  0
 28 23  1  0  0  0
M  END
> <minimizedAffinity>
-8.02655

> <CNNscore>
0.4396960139

> <CNNaffinity>
6.7122550011

> <CNN_VS>
2.9513518810

> <CNNaffinity_variance>
0.1790401042

$$$$



 35 40  0  0  0  0  0  0  0  0999 V2000
   10.2756   -2.8748   26.2651 C   0  0  0  0  0  0  0  0  0  0  0  0
    9.1756   -1.9455   25.8448 C   0  0  0  0  0  0  0  0  0  0  0  0
    7.8466   -2.3589   26.4040 C   0  0  0  0  0  0  0  0  0  0  0  0
    6.8183   -1.3746   25.9309 N   0  0  0  0  0  0  0  0  0  0  0  0
    7.5119   -0.3530   25.0793 C   0  0  0  0  0  0  0  0  0  0  0  0
    6.8625    0.8162   24.4001 O   0  0  0  0  0  0  0  0  0  0  0  0
    8.9688   -0.7058   25.0261 C   0  0  0  0  0  0  0  0  0  0  0  0
    8.6100    0.5237   24.2454 C   0  0  0  0  0  0  0  0  0  0  0  0
    9.6734    1.2781   23.5037 N   0  0  0  0  0  0  0  0  0  0  0  0
   11.0956    0.8029   23.5426 C   0  0  0  0  0  0  0  0  0  0  0  0
   12.1589    1.5573   22.8009 O   0  0  0  0  0  0  0  0  0  0  0  0
   11.4544   -0.4267   24.3233 C   0  0  0  0  0  0  0  0  0  0  0  0
   12.8766   -0.9019   24.3621 C   0  0  0  0  0  0  0  0  0  0  0  0
   13.2354   -2.1314   25.1428 C   0  0  0  0  0  0  0  0  0  0  0  0
   12.1721   -2.8858   25.8845 C   0  0  0  0  0  0  0  0  0  0  0  0
   12.5309   -4.1154   26.6651 F   0  0  0  0  0  0  0  0  0  0  0  0
   10.7499   -2.4106   25.8456 C   0  0  0  0  0  0  0  0  0  0  0  0
   10.3911   -1.1811   25.0650 C   0  0  0  0  0  0  0  0  0  0  0  0
    5.3536   -1.4064   26.2528 C   0  0  0  0  0  0  0  0  0  0  0  0
    4.4116   -0.4716   25.5537 C   0  0  0  0  0  0  0  0  0  0  0  0
    2.9469   -0.5034   25.8757 N   0  0  0  0  0  0  0  0  0  0  0  0
    2.4243   -1.4699   26.8967 C   0  0  0  0  0  0  0  0  0  0  0  0
    3.3663   -2.4047   27.5959 C   0  0  0  0  0  0  0  0  0  0  0  0
    2.8436   -3.3713   28.6170 C   0  0  0  0  0  0  0  0  0  0  0  0
    3.7857   -4.3060   29.3161 C   0  0  0  0  0  0  0  0  0  0  0  0
    5.2503   -4.2742   28.9941 C   0  0  0  0  0  0  0  0  0  0  0  0
    5.7730   -3.3077   27.9730 C   0  0  0  0  0  0  0  0  0  0  0  0
    4.8310   -2.3730   27.2739 C   0  0  0  0  0  0  0  0  0  0  0  0
    9.3145    2.5077   22.7231 C   0  0  0  0  0  0  0  0  0  0  0  0
    7.9337    2.6606   22.1575 C   0  0  0  0  0  0  0  0  0  0  0  0
    7.0515    3.7802   22.6247 N   0  0  0  0  0  0  0  0  0  0  0  0
    5.6707    3.9330   22.0591 C   0  0  0  0  0  0  0  0  0  0  0  0
    5.1720    2.9663   21.0262 C   0  0  0  0  0  0  0  0  0  0  0  0
    6.0542    1.8467   20.5590 C   0  0  0  0  0  0  0  0  0  0  0  0
    7.4351    1.6938   21.1247 N   0  0  0  0  0  0  0  0  0  0  0  0
  2  1  1  0  0  0
  2  3  1  0  0  0
  3  4  1  0  0  0
  4 19  1  0  0  0
 19 20  2  0  0  0
 20 21  1  0  0  0
 21 22  2  0  0  0
 22 23  1  0  0  0
 23 24  2  0  0  0
 24 25  1  0  0  0
 25 26  2  0  0  0
 26 27  1  0  0  0
 27 28  2  0  0  0
  4  5  1  0  0  0
  5  6  2  0  0  0
  5  7  1  0  0  0
  7  8  1  0  0  0
  8  9  1  0  0  0
  9 29  1  0  0  0
 29 30  1  0  0  0
 30 31  2  0  0  0
 31 32  1  0  0  0
 32 33  2  0  0  0
 33 34  1  0  0  0
 34 35  2  0  0  0
  9 10  1  0  0  0
 10 11  2  0  0  0
 10 12  1  0  0  0
 12 13  2  0  0  0
 13 14  1  0  0  0
 14 15  2  0  0  0
 15 16  1  0  0  0
 15 17  1  0  0  0
 17 18  2  0  0  0
  7  2  1  0  0  0
 35 30  1  0  0  0
 18 12  1  0  0  0
 28 19  1  0  0  0
 18  7  1  0  0  0
 28 23  1  0  0  0
M  END
> <minimizedAffinity>
-8.05458

> <CNNscore>
0.2986922860

> <CNNaffinity>
6.5642690659

> <CNN_VS>
1.9606965780

> <CNNaffinity_variance>
0.2239398956

$$$$



 35 40  0  0  0  0  0  0  0  0999 V2000
   10.4593    0.2977   22.6790 C   0  0  0  0  0  0  0  0  0  0  0  0
    9.1520   -0.2992   22.2490 C   0  0  0  0  0  0  0  0  0  0  0  0
    8.4360    0.5704   21.2585 C   0  0  0  0  0  0  0  0  0  0  0  0
    7.1490   -0.1072   20.8919 N   0  0  0  0  0  0  0  0  0  0  0  0
    7.0697   -1.3957   21.6558 C   0  0  0  0  0  0  0  0  0  0  0  0
    5.9491   -2.3908   21.5921 O   0  0  0  0  0  0  0  0  0  0  0  0
    8.3076   -1.5144   22.4945 C   0  0  0  0  0  0  0  0  0  0  0  0
    7.3604   -2.6685   22.6382 C   0  0  0  0  0  0  0  0  0  0  0  0
    7.6950   -3.8031   23.5606 N   0  0  0  0  0  0  0  0  0  0  0  0
    8.9769   -3.7835   24.3392 C   0  0  0  0  0  0  0  0  0  0  0  0
    9.3116   -4.9181   25.2615 O   0  0  0  0  0  0  0  0  0  0  0  0
    9.9242   -2.6293   24.1956 C   0  0  0  0  0  0  0  0  0  0  0  0
   11.2061   -2.6098   24.9742 C   0  0  0  0  0  0  0  0  0  0  0  0
   12.1533   -1.4556   24.8305 C   0  0  0  0  0  0  0  0  0  0  0  0
   11.8186   -0.3210   23.9082 C   0  0  0  0  0  0  0  0  0  0  0  0
   12.7659    0.8331   23.7645 F   0  0  0  0  0  0  0  0  0  0  0  0
   10.5367   -0.3406   23.1295 C   0  0  0  0  0  0  0  0  0  0  0  0
    9.5895   -1.4948   23.2732 C   0  0  0  0  0  0  0  0  0  0  0  0
    6.1218    0.4123   19.9302 C   0  0  0  0  0  0  0  0  0  0  0  0
    6.1115   -0.0710   18.5103 C   0  0  0  0  0  0  0  0  0  0  0  0
    5.0842    0.4486   17.5487 N   0  0  0  0  0  0  0  0  0  0  0  0
    4.0673    1.4515   18.0070 C   0  0  0  0  0  0  0  0  0  0  0  0
    4.0776    1.9348   19.4270 C   0  0  0  0  0  0  0  0  0  0  0  0
    3.0606    2.9377   19.8853 C   0  0  0  0  0  0  0  0  0  0  0  0
    3.0710    3.4209   21.3053 C   0  0  0  0  0  0  0  0  0  0  0  0
    4.0983    2.9014   22.2669 C   0  0  0  0  0  0  0  0  0  0  0  0
    5.1152    1.8985   21.8085 C   0  0  0  0  0  0  0  0  0  0  0  0
    5.1049    1.4152   20.3886 C   0  0  0  0  0  0  0  0  0  0  0  0
    6.7478   -4.9573   23.7042 C   0  0  0  0  0  0  0  0  0  0  0  0
    5.8750   -5.0645   24.9194 C   0  0  0  0  0  0  0  0  0  0  0  0
    5.7591   -3.9052   25.8642 N   0  0  0  0  0  0  0  0  0  0  0  0
    4.8863   -4.0123   27.0794 C   0  0  0  0  0  0  0  0  0  0  0  0
    4.1293   -5.2788   27.3498 C   0  0  0  0  0  0  0  0  0  0  0  0
    4.2452   -6.4381   26.4050 C   0  0  0  0  0  0  0  0  0  0  0  0
    5.1181   -6.3309   25.1898 N   0  0  0  0  0  0  0  0  0  0  0  0
  2  1  1  0  0  0
  2  3  1  0  0  0
  3  4  1  0  0  0
  4 19  1  0  0  0
 19 20  2  0  0  0
 20 21  1  0  0  0
 21 22  2  0  0  0
 22 23  1  0  0  0
 23 24  2  0  0  0
 24 25  1  0  0  0
 25 26  2  0  0  0
 26 27  1  0  0  0
 27 28  2  0  0  0
  4  5  1  0  0  0
  5  6  2  0  0  0
  5  7  1  0  0  0
  7  8  1  0  0  0
  8  9  1  0  0  0
  9 29  1  0  0  0
 29 30  1  0  0  0
 30 31  2  0  0  0
 31 32  1  0  0  0
 32 33  2  0  0  0
 33 34  1  0  0  0
 34 35  2  0  0  0
  9 10  1  0  0  0
 10 11  2  0  0  0
 10 12  1  0  0  0
 12 13  2  0  0  0
 13 14  1  0  0  0
 14 15  2  0  0  0
 15 16  1  0  0  0
 15 17  1  0  0  0
 17 18  2  0  0  0
  7  2  1  0  0  0
 35 30  1  0  0  0
 18 12  1  0  0  0
 28 19  1  0  0  0
 18  7  1  0  0  0
 28 23  1  0  0  0
M  END
> <minimizedAffinity>
-9.05058

> <CNNscore>
0.2883684039

> <CNNaffinity>
6.5192351341

> <CNN_VS>
1.8799414635

> <CNNaffinity_variance>
0.0473890714

$$$$



 35 40  0  0  0  0  0  0  0  0999 V2000
   10.7697   -3.7371   25.6289 C   0  0  0  0  0  0  0  0  0  0  0  0
    9.5739   -3.4233   24.7793 C   0  0  0  0  0  0  0  0  0  0  0  0
    8.5152   -4.4805   24.8870 C   0  0  0  0  0  0  0  0  0  0  0  0
    7.3683   -4.0792   24.0075 N   0  0  0  0  0  0  0  0  0  0  0  0
    7.7182   -2.7740   23.3563 C   0  0  0  0  0  0  0  0  0  0  0  0
    6.8562   -2.0086   22.3965 O   0  0  0  0  0  0  0  0  0  0  0  0
    9.0813   -2.3686   23.8333 C   0  0  0  0  0  0  0  0  0  0  0  0
    8.4583   -1.4001   22.8721 C   0  0  0  0  0  0  0  0  0  0  0  0
    9.1988   -0.1582   22.4732 N   0  0  0  0  0  0  0  0  0  0  0  0
   10.5623    0.1153   23.0354 C   0  0  0  0  0  0  0  0  0  0  0  0
   11.3028    1.3573   22.6365 O   0  0  0  0  0  0  0  0  0  0  0  0
   11.1854   -0.8532   23.9966 C   0  0  0  0  0  0  0  0  0  0  0  0
   12.5488   -0.5798   24.5588 C   0  0  0  0  0  0  0  0  0  0  0  0
   13.1718   -1.5483   25.5200 C   0  0  0  0  0  0  0  0  0  0  0  0
   12.4313   -2.7903   25.9189 C   0  0  0  0  0  0  0  0  0  0  0  0
   13.0543   -3.7588   26.8801 F   0  0  0  0  0  0  0  0  0  0  0  0
   11.0678   -3.0637   25.3567 C   0  0  0  0  0  0  0  0  0  0  0  0
   10.4448   -2.0952   24.3956 C   0  0  0  0  0  0  0  0  0  0  0  0
    6.0951   -4.8481   23.8132 C   0  0  0  0  0  0  0  0  0  0  0  0
    5.8189   -5.5227   22.5023 C   0  0  0  0  0  0  0  0  0  0  0  0
    4.5457   -6.2916   22.3081 N   0  0  0  0  0  0  0  0  0  0  0  0
    3.5487   -6.3858   23.4248 C   0  0  0  0  0  0  0  0  0  0  0  0
    3.8249   -5.7112   24.7358 C   0  0  0  0  0  0  0  0  0  0  0  0
    2.8278   -5.8054   25.8525 C   0  0  0  0  0  0  0  0  0  0  0  0
    3.1041   -5.1308   27.1635 C   0  0  0  0  0  0  0  0  0  0  0  0
    4.3773   -4.3619   27.3576 C   0  0  0  0  0  0  0  0  0  0  0  0
    5.3743   -4.2677   26.2409 C   0  0  0  0  0  0  0  0  0  0  0  0
    5.0981   -4.9423   24.9300 C   0  0  0  0  0  0  0  0  0  0  0  0
    8.5758    0.8104   21.5120 C   0  0  0  0  0  0  0  0  0  0  0  0
    7.8014    1.9865   22.0286 C   0  0  0  0  0  0  0  0  0  0  0  0
    6.6129    2.4948   21.2676 N   0  0  0  0  0  0  0  0  0  0  0  0
    5.8385    3.6710   21.7843 C   0  0  0  0  0  0  0  0  0  0  0  0
    6.2527    4.3389   23.0619 C   0  0  0  0  0  0  0  0  0  0  0  0
    7.4412    3.8307   23.8229 C   0  0  0  0  0  0  0  0  0  0  0  0
    8.2156    2.6544   23.3062 N   0  0  0  0  0  0  0  0  0  0  0  0
  2  1  1  0  0  0
  2  3  1  0  0  0
  3  4  1  0  0  0
  4 19  1  0  0  0
 19 20  2  0  0  0
 20 21  1  0  0  0
 21 22  2  0  0  0
 22 23  1  0  0  0
 23 24  2  0  0  0
 24 25  1  0  0  0
 25 26  2  0  0  0
 26 27  1  0  0  0
 27 28  2  0  0  0
  4  5  1  0  0  0
  5  6  2  0  0  0
  5  7  1  0  0  0
  7  8  1  0  0  0
  8  9  1  0  0  0
  9 29  1  0  0  0
 29 30  1  0  0  0
 30 31  2  0  0  0
 31 32  1  0  0  0
 32 33  2  0  0  0
 33 34  1  0  0  0
 34 35  2  0  0  0
  9 10  1  0  0  0
 10 11  2  0  0  0
 10 12  1  0  0  0
 12 13  2  0  0  0
 13 14  1  0  0  0
 14 15  2  0  0  0
 15 16  1  0  0  0
 15 17  1  0  0  0
 17 18  2  0  0  0
  7  2  1  0  0  0
 35 30  1  0  0  0
 18 12  1  0  0  0
 28 19  1  0  0  0
 18  7  1  0  0  0
 28 23  1  0  0  0
M  END
> <minimizedAffinity>
-8.71376

> <CNNscore>
0.2677372396

> <CNNaffinity>
6.5389328003

> <CNN_VS>
1.7507158518

> <CNNaffinity_variance>
0.1380329132

$$$$



 35 40  0  0  0  0  0  0  0  0999 V2000
    5.4578   -5.4333   22.9367 C   0  0  0  0  0  0  0  0  0  0  0  0
    6.3005   -4.5443   23.8024 C   0  0  0  0  0  0  0  0  0  0  0  0
    7.4954   -4.0131   23.0674 C   0  0  0  0  0  0  0  0  0  0  0  0
    8.2699   -3.1412   24.0107 N   0  0  0  0  0  0  0  0  0  0  0  0
    7.5538   -3.1335   25.3287 C   0  0  0  0  0  0  0  0  0  0  0  0
    7.9800   -2.3893   26.5594 O   0  0  0  0  0  0  0  0  0  0  0  0
    6.3366   -4.0007   25.2000 C   0  0  0  0  0  0  0  0  0  0  0  0
    6.5051   -3.3832   26.5566 C   0  0  0  0  0  0  0  0  0  0  0  0
    5.5004   -3.6584   27.6359 N   0  0  0  0  0  0  0  0  0  0  0  0
    4.3273   -4.5511   27.3586 C   0  0  0  0  0  0  0  0  0  0  0  0
    3.3227   -4.8263   28.4380 O   0  0  0  0  0  0  0  0  0  0  0  0
    4.1588   -5.1686   26.0020 C   0  0  0  0  0  0  0  0  0  0  0  0
    2.9857   -6.0613   25.7248 C   0  0  0  0  0  0  0  0  0  0  0  0
    2.8173   -6.6787   24.3682 C   0  0  0  0  0  0  0  0  0  0  0  0
    3.8219   -6.4035   23.2889 C   0  0  0  0  0  0  0  0  0  0  0  0
    3.6534   -7.0210   21.9323 F   0  0  0  0  0  0  0  0  0  0  0  0
    4.9950   -5.5109   23.5661 C   0  0  0  0  0  0  0  0  0  0  0  0
    5.1635   -4.8934   24.9227 C   0  0  0  0  0  0  0  0  0  0  0  0
    9.5380   -2.4061   23.6920 C   0  0  0  0  0  0  0  0  0  0  0  0
    9.5802   -1.4488   22.5381 C   0  0  0  0  0  0  0  0  0  0  0  0
   10.8482   -0.7137   22.2194 N   0  0  0  0  0  0  0  0  0  0  0  0
   12.0741   -0.9358   23.0547 C   0  0  0  0  0  0  0  0  0  0  0  0
   12.0319   -1.8932   24.2088 C   0  0  0  0  0  0  0  0  0  0  0  0
   13.2579   -2.1153   25.0441 C   0  0  0  0  0  0  0  0  0  0  0  0
   13.2156   -3.0727   26.1982 C   0  0  0  0  0  0  0  0  0  0  0  0
   11.9476   -3.8077   26.5168 C   0  0  0  0  0  0  0  0  0  0  0  0
   10.7217   -3.5856   25.6814 C   0  0  0  0  0  0  0  0  0  0  0  0
   10.7639   -2.6283   24.5275 C   0  0  0  0  0  0  0  0  0  0  0  0
    5.6689   -3.0409   28.9925 C   0  0  0  0  0  0  0  0  0  0  0  0
    5.4337   -1.5717   29.1823 C   0  0  0  0  0  0  0  0  0  0  0  0
    4.8599   -0.7534   28.0637 N   0  0  0  0  0  0  0  0  0  0  0  0
    4.6246    0.7158   28.2535 C   0  0  0  0  0  0  0  0  0  0  0  0
    4.9631    1.3668   29.5618 C   0  0  0  0  0  0  0  0  0  0  0  0
    5.5369    0.5485   30.6804 C   0  0  0  0  0  0  0  0  0  0  0  0
    5.7722   -0.9208   30.4906 N   0  0  0  0  0  0  0  0  0  0  0  0
  2  1  1  0  0  0
  2  3  1  0  0  0
  3  4  1  0  0  0
  4 19  1  0  0  0
 19 20  2  0  0  0
 20 21  1  0  0  0
 21 22  2  0  0  0
 22 23  1  0  0  0
 23 24  2  0  0  0
 24 25  1  0  0  0
 25 26  2  0  0  0
 26 27  1  0  0  0
 27 28  2  0  0  0
  4  5  1  0  0  0
  5  6  2  0  0  0
  5  7  1  0  0  0
  7  8  1  0  0  0
  8  9  1  0  0  0
  9 29  1  0  0  0
 29 30  1  0  0  0
 30 31  2  0  0  0
 31 32  1  0  0  0
 32 33  2  0  0  0
 33 34  1  0  0  0
 34 35  2  0  0  0
  9 10  1  0  0  0
 10 11  2  0  0  0
 10 12  1  0  0  0
 12 13  2  0  0  0
 13 14  1  0  0  0
 14 15  2  0  0  0
 15 16  1  0  0  0
 15 17  1  0  0  0
 17 18  2  0  0  0
  7  2  1  0  0  0
 35 30  1  0  0  0
 18 12  1  0  0  0
 28 19  1  0  0  0
 18  7  1  0  0  0
 28 23  1  0  0  0
M  END
> <minimizedAffinity>
-7.67527

> <CNNscore>
0.2547609210

> <CNNaffinity>
6.4593291283

> <CNN_VS>
1.6455845833

> <CNNaffinity_variance>
0.1067161933

$$$$



 35 40  0  0  0  0  0  0  0  0999 V2000
   11.5529   -1.5408   25.0650 C   0  0  0  0  0  0  0  0  0  0  0  0
   10.7411   -0.5260   24.3158 C   0  0  0  0  0  0  0  0  0  0  0  0
   11.5004    0.7485   24.0945 C   0  0  0  0  0  0  0  0  0  0  0  0
   10.6107    1.6935   23.3427 N   0  0  0  0  0  0  0  0  0  0  0  0
    9.3015    1.0030   23.0994 C   0  0  0  0  0  0  0  0  0  0  0  0
    8.1192    1.5825   22.3807 O   0  0  0  0  0  0  0  0  0  0  0  0
    9.3821   -0.3688   23.7008 C   0  0  0  0  0  0  0  0  0  0  0  0
    8.0678   -0.0669   23.0439 C   0  0  0  0  0  0  0  0  0  0  0  0
    6.9804   -1.1000   23.0323 N   0  0  0  0  0  0  0  0  0  0  0  0
    7.2072   -2.4350   23.6776 C   0  0  0  0  0  0  0  0  0  0  0  0
    6.1197   -3.4681   23.6661 O   0  0  0  0  0  0  0  0  0  0  0  0
    8.5215   -2.7369   24.3346 C   0  0  0  0  0  0  0  0  0  0  0  0
    8.7483   -4.0718   24.9798 C   0  0  0  0  0  0  0  0  0  0  0  0
   10.0626   -4.3736   25.6367 C   0  0  0  0  0  0  0  0  0  0  0  0
   11.1501   -3.3406   25.6483 C   0  0  0  0  0  0  0  0  0  0  0  0
   12.4644   -3.6424   26.3052 F   0  0  0  0  0  0  0  0  0  0  0  0
   10.9232   -2.0056   25.0030 C   0  0  0  0  0  0  0  0  0  0  0  0
    9.6090   -1.7038   24.3461 C   0  0  0  0  0  0  0  0  0  0  0  0
   10.9674    3.0848   22.9101 C   0  0  0  0  0  0  0  0  0  0  0  0
   12.3174    3.3634   22.3188 C   0  0  0  0  0  0  0  0  0  0  0  0
   12.6742    4.7546   21.8863 N   0  0  0  0  0  0  0  0  0  0  0  0
   11.6808    5.8673   22.0451 C   0  0  0  0  0  0  0  0  0  0  0  0
   10.3307    5.5887   22.6364 C   0  0  0  0  0  0  0  0  0  0  0  0
    9.3373    6.7014   22.7951 C   0  0  0  0  0  0  0  0  0  0  0  0
    7.9873    6.4227   23.3865 C   0  0  0  0  0  0  0  0  0  0  0  0
    7.6306    5.0315   23.8190 C   0  0  0  0  0  0  0  0  0  0  0  0
    8.6240    3.9188   23.6602 C   0  0  0  0  0  0  0  0  0  0  0  0
    9.9740    4.1974   23.0689 C   0  0  0  0  0  0  0  0  0  0  0  0
    5.6660   -0.7981   22.3754 C   0  0  0  0  0  0  0  0  0  0  0  0
    5.6310   -0.3068   20.9587 C   0  0  0  0  0  0  0  0  0  0  0  0
    6.7123   -0.7069   19.9991 N   0  0  0  0  0  0  0  0  0  0  0  0
    6.6773   -0.2155   18.5824 C   0  0  0  0  0  0  0  0  0  0  0  0
    5.5610    0.6761   18.1251 C   0  0  0  0  0  0  0  0  0  0  0  0
    4.4797    1.0762   19.0846 C   0  0  0  0  0  0  0  0  0  0  0  0
    4.5148    0.5847   20.5014 N   0  0  0  0  0  0  0  0  0  0  0  0
  2  1  1  0  0  0
  2  3  1  0  0  0
  3  4  1  0  0  0
  4 19  1  0  0  0
 19 20  2  0  0  0
 20 21  1  0  0  0
 21 22  2  0  0  0
 22 23  1  0  0  0
 23 24  2  0  0  0
 24 25  1  0  0  0
 25 26  2  0  0  0
 26 27  1  0  0  0
 27 28  2  0  0  0
  4  5  1  0  0  0
  5  6  2  0  0  0
  5  7  1  0  0  0
  7  8  1  0  0  0
  8  9  1  0  0  0
  9 29  1  0  0  0
 29 30  1  0  0  0
 30 31  2  0  0  0
 31 32  1  0  0  0
 32 33  2  0  0  0
 33 34  1  0  0  0
 34 35  2  0  0  0
  9 10  1  0  0  0
 10 11  2  0  0  0
 10 12  1  0  0  0
 12 13  2  0  0  0
 13 14  1  0  0  0
 14 15  2  0  0  0
 15 16  1  0  0  0
 15 17  1  0  0  0
 17 18  2  0  0  0
  7  2  1  0  0  0
 35 30  1  0  0  0
 18 12  1  0  0  0
 28 19  1  0  0  0
 18  7  1  0  0  0
 28 23  1  0  0  0
M  END
> <minimizedAffinity>
-9.00356

> <CNNscore>
0.2407544106

> <CNNaffinity>
6.5501098633

> <CNN_VS>
1.5769678354

> <CNNaffinity_variance>
0.1676911116

$$$$



 35 40  0  0  0  0  0  0  0  0999 V2000
    7.1440    0.1486   20.1195 C   0  0  0  0  0  0  0  0  0  0  0  0
    7.5243    0.0925   21.5694 C   0  0  0  0  0  0  0  0  0  0  0  0
    8.9406   -0.3627   21.7616 C   0  0  0  0  0  0  0  0  0  0  0  0
    9.2241   -0.3859   23.2344 N   0  0  0  0  0  0  0  0  0  0  0  0
    7.9831    0.0548   23.9524 C   0  0  0  0  0  0  0  0  0  0  0  0
    7.8210    0.1782   25.4385 O   0  0  0  0  0  0  0  0  0  0  0  0
    6.9325    0.3505   22.9234 C   0  0  0  0  0  0  0  0  0  0  0  0
    6.4795    0.5659   24.3370 C   0  0  0  0  0  0  0  0  0  0  0  0
    5.0825    1.0369   24.6134 N   0  0  0  0  0  0  0  0  0  0  0  0
    4.1384    1.2925   23.4762 C   0  0  0  0  0  0  0  0  0  0  0  0
    2.7414    1.7635   23.7526 O   0  0  0  0  0  0  0  0  0  0  0  0
    4.5914    1.0772   22.0625 C   0  0  0  0  0  0  0  0  0  0  0  0
    3.6473    1.3329   20.9252 C   0  0  0  0  0  0  0  0  0  0  0  0
    4.1003    1.1176   19.5116 C   0  0  0  0  0  0  0  0  0  0  0  0
    5.4973    0.6465   19.2352 C   0  0  0  0  0  0  0  0  0  0  0  0
    5.9503    0.4312   17.8215 F   0  0  0  0  0  0  0  0  0  0  0  0
    6.4414    0.3909   20.3724 C   0  0  0  0  0  0  0  0  0  0  0  0
    5.9884    0.6062   21.7861 C   0  0  0  0  0  0  0  0  0  0  0  0
   10.5210   -0.7807   23.8765 C   0  0  0  0  0  0  0  0  0  0  0  0
   11.7406    0.0722   23.6895 C   0  0  0  0  0  0  0  0  0  0  0  0
   13.0375   -0.3226   24.3316 N   0  0  0  0  0  0  0  0  0  0  0  0
   13.1147   -1.5702   25.1607 C   0  0  0  0  0  0  0  0  0  0  0  0
   11.8950   -2.4231   25.3477 C   0  0  0  0  0  0  0  0  0  0  0  0
   11.9722   -3.6708   26.1768 C   0  0  0  0  0  0  0  0  0  0  0  0
   10.7525   -4.5237   26.3637 C   0  0  0  0  0  0  0  0  0  0  0  0
    9.4557   -4.1289   25.7216 C   0  0  0  0  0  0  0  0  0  0  0  0
    9.3785   -2.8812   24.8926 C   0  0  0  0  0  0  0  0  0  0  0  0
   10.5981   -2.0284   24.7056 C   0  0  0  0  0  0  0  0  0  0  0  0
    4.6295    1.2522   26.0271 C   0  0  0  0  0  0  0  0  0  0  0  0
    4.7302    0.1369   27.0251 C   0  0  0  0  0  0  0  0  0  0  0  0
    5.1888    0.4218   28.4245 N   0  0  0  0  0  0  0  0  0  0  0  0
    5.2894   -0.6935   29.4225 C   0  0  0  0  0  0  0  0  0  0  0  0
    4.9315   -2.0938   29.0209 C   0  0  0  0  0  0  0  0  0  0  0  0
    4.4729   -2.3787   27.6215 C   0  0  0  0  0  0  0  0  0  0  0  0
    4.3723   -1.2633   26.6235 N   0  0  0  0  0  0  0  0  0  0  0  0
  2  1  1  0  0  0
  2  3  1  0  0  0
  3  4  1  0  0  0
  4 19  1  0  0  0
 19 20  2  0  0  0
 20 21  1  0  0  0
 21 22  2  0  0  0
 22 23  1  0  0  0
 23 24  2  0  0  0
 24 25  1  0  0  0
 25 26  2  0  0  0
 26 27  1  0  0  0
 27 28  2  0  0  0
  4  5  1  0  0  0
  5  6  2  0  0  0
  5  7  1  0  0  0
  7  8  1  0  0  0
  8  9  1  0  0  0
  9 29  1  0  0  0
 29 30  1  0  0  0
 30 31  2  0  0  0
 31 32  1  0  0  0
 32 33  2  0  0  0
 33 34  1  0  0  0
 34 35  2  0  0  0
  9 10  1  0  0  0
 10 11  2  0  0  0
 10 12  1  0  0  0
 12 13  2  0  0  0
 13 14  1  0  0  0
 14 15  2  0  0  0
 15 16  1  0  0  0
 15 17  1  0  0  0
 17 18  2  0  0  0
  7  2  1  0  0  0
 35 30  1  0  0  0
 18 12  1  0  0  0
 28 19  1  0  0  0
 18  7  1  0  0  0
 28 23  1  0  0  0
M  END
> <minimizedAffinity>
-8.32802

> <CNNscore>
0.2307550907

> <CNNaffinity>
6.3198747635

> <CNN_VS>
1.4583432674

> <CNNaffinity_variance>
0.1282118261

$$$$
