


 34 39  0  0  0  0  0  0  0  0999 V2000
    7.5821   -3.2529   23.5630 C   0  0  0  0  0  0  0  0  0  0  0  0
    7.7671   -1.9881   22.7779 C   0  0  0  0  0  0  0  0  0  0  0  0
    6.6274   -1.7405   21.8346 C   0  0  0  0  0  0  0  0  0  0  0  0
    6.9029   -0.4619   21.1003 N   0  0  0  0  0  0  0  0  0  0  0  0
    8.2129    0.0807   21.5898 C   0  0  0  0  0  0  0  0  0  0  0  0
    8.8729    1.3447   21.1242 O   0  0  0  0  0  0  0  0  0  0  0  0
    8.7470   -0.8626   22.6266 C   0  0  0  0  0  0  0  0  0  0  0  0
    9.6295    0.3223   22.3674 C   0  0  0  0  0  0  0  0  0  0  0  0
   10.9174    0.4774   23.1206 N   0  0  0  0  0  0  0  0  0  0  0  0
   11.3227   -0.5524   24.1331 C   0  0  0  0  0  0  0  0  0  0  0  0
   12.6106   -0.3973   24.8864 O   0  0  0  0  0  0  0  0  0  0  0  0
   10.4402   -1.7373   24.3925 C   0  0  0  0  0  0  0  0  0  0  0  0
   10.8455   -2.7671   25.4050 C   0  0  0  0  0  0  0  0  0  0  0  0
    9.9630   -3.9519   25.6643 C   0  0  0  0  0  0  0  0  0  0  0  0
    8.6751   -4.1070   24.9110 C   0  0  0  0  0  0  0  0  0  0  0  0
    7.7926   -5.2919   25.1703 F   0  0  0  0  0  0  0  0  0  0  0  0
    8.2698   -3.0772   23.8985 C   0  0  0  0  0  0  0  0  0  0  0  0
    9.1523   -1.8924   23.6392 C   0  0  0  0  0  0  0  0  0  0  0  0
    6.0230    0.1642   20.0593 C   0  0  0  0  0  0  0  0  0  0  0  0
    6.1439   -0.2551   18.6243 C   0  0  0  0  0  0  0  0  0  0  0  0
    5.2640    0.3710   17.5833 N   0  0  0  0  0  0  0  0  0  0  0  0
    4.2632    1.4165   17.9774 C   0  0  0  0  0  0  0  0  0  0  0  0
    4.1422    1.8358   19.4126 C   0  0  0  0  0  0  0  0  0  0  0  0
    3.1413    2.8813   19.8067 C   0  0  0  0  0  0  0  0  0  0  0  0
    3.0205    3.3005   21.2418 C   0  0  0  0  0  0  0  0  0  0  0  0
    3.9004    2.6744   22.2827 C   0  0  0  0  0  0  0  0  0  0  0  0
    4.9012    1.6289   21.8886 C   0  0  0  0  0  0  0  0  0  0  0  0
    5.0222    1.2097   20.4536 C   0  0  0  0  0  0  0  0  0  0  0  0
   11.7999    1.6623   22.8613 C   0  0  0  0  0  0  0  0  0  0  0  0
   11.2352    3.0496   22.9404 C   0  0  0  0  0  0  0  0  0  0  0  0
    9.7890    3.4038   23.1222 C   0  0  0  0  0  0  0  0  0  0  0  0
    9.6775    4.8995   23.1457 O   0  0  0  0  0  0  0  0  0  0  0  0
   11.0548    5.4697   22.9784 C   0  0  0  0  0  0  0  0  0  0  0  0
   12.0175    4.3264   22.8515 N   0  0  0  0  0  0  0  0  0  0  0  0
  2  1  1  0  0  0
  2  3  1  0  0  0
  3  4  1  0  0  0
  4 19  1  0  0  0
 19 20  2  0  0  0
 20 21  1  0  0  0
 21 22  2  0  0  0
 22 23  1  0  0  0
 23 24  2  0  0  0
 24 25  1  0  0  0
 25 26  2  0  0  0
 26 27  1  0  0  0
 27 28  2  0  0  0
  4  5  1  0  0  0
  5  6  2  0  0  0
  5  7  1  0  0  0
  7  8  1  0  0  0
  8  9  1  0  0  0
  9 29  1  0  0  0
 29 30  1  0  0  0
 30 31  2  0  0  0
 31 32  1  0  0  0
 32 33  1  0  0  0
 33 34  2  0  0  0
  9 10  1  0  0  0
 10 11  2  0  0  0
 10 12  1  0  0  0
 12 13  2  0  0  0
 13 14  1  0  0  0
 14 15  2  0  0  0
 15 16  1  0  0  0
 15 17  1  0  0  0
 17 18  2  0  0  0
  7  2  1  0  0  0
 34 30  1  0  0  0
 18 12  1  0  0  0
 28 19  1  0  0  0
 18  7  1  0  0  0
 28 23  1  0  0  0
M  END
> <minimizedAffinity>
-9.42646

> <CNNscore>
0.5760200024

> <CNNaffinity>
6.7811546326

> <CNN_VS>
3.9060807228

> <CNNaffinity_variance>
0.1123869047

$$$$



 34 39  0  0  0  0  0  0  0  0999 V2000
    9.1505   -0.9285   23.7041 C   0  0  0  0  0  0  0  0  0  0  0  0
    7.9896   -1.3273   22.8418 C   0  0  0  0  0  0  0  0  0  0  0  0
    7.5956   -0.2365   21.8905 C   0  0  0  0  0  0  0  0  0  0  0  0
    6.4345   -0.7276   21.0776 N   0  0  0  0  0  0  0  0  0  0  0  0
    6.1109   -2.1218   21.5267 C   0  0  0  0  0  0  0  0  0  0  0  0
    5.0181   -2.9924   20.9811 O   0  0  0  0  0  0  0  0  0  0  0  0
    7.0721   -2.4924   22.6170 C   0  0  0  0  0  0  0  0  0  0  0  0
    6.0851   -3.5708   22.2812 C   0  0  0  0  0  0  0  0  0  0  0  0
    6.1222   -4.8772   23.0174 N   0  0  0  0  0  0  0  0  0  0  0  0
    7.1462   -5.1052   24.0894 C   0  0  0  0  0  0  0  0  0  0  0  0
    7.1833   -6.4115   24.8256 O   0  0  0  0  0  0  0  0  0  0  0  0
    8.1333   -4.0267   24.4253 C   0  0  0  0  0  0  0  0  0  0  0  0
    9.1573   -4.2547   25.4973 C   0  0  0  0  0  0  0  0  0  0  0  0
   10.1443   -3.1762   25.8331 C   0  0  0  0  0  0  0  0  0  0  0  0
   10.1072   -1.8699   25.0969 C   0  0  0  0  0  0  0  0  0  0  0  0
   11.0943   -0.7914   25.4328 F   0  0  0  0  0  0  0  0  0  0  0  0
    9.0832   -1.6419   24.0249 C   0  0  0  0  0  0  0  0  0  0  0  0
    8.0962   -2.7203   23.6891 C   0  0  0  0  0  0  0  0  0  0  0  0
    5.7220    0.0407   20.0043 C   0  0  0  0  0  0  0  0  0  0  0  0
    6.2060   -0.0274   18.5862 C   0  0  0  0  0  0  0  0  0  0  0  0
    5.4935    0.7409   17.5128 N   0  0  0  0  0  0  0  0  0  0  0  0
    4.2970    1.5771   17.8576 C   0  0  0  0  0  0  0  0  0  0  0  0
    3.8129    1.6451   19.2757 C   0  0  0  0  0  0  0  0  0  0  0  0
    2.6162    2.4814   19.6205 C   0  0  0  0  0  0  0  0  0  0  0  0
    2.1322    2.5494   21.0386 C   0  0  0  0  0  0  0  0  0  0  0  0
    2.8447    1.7812   22.1119 C   0  0  0  0  0  0  0  0  0  0  0  0
    4.0413    0.9449   21.7671 C   0  0  0  0  0  0  0  0  0  0  0  0
    4.5254    0.8769   20.3491 C   0  0  0  0  0  0  0  0  0  0  0  0
    5.1351   -5.9557   22.6815 C   0  0  0  0  0  0  0  0  0  0  0  0
    3.8766   -6.0974   23.4853 C   0  0  0  0  0  0  0  0  0  0  0  0
    2.5992   -6.7303   23.0190 C   0  0  0  0  0  0  0  0  0  0  0  0
    1.6077   -6.6552   24.1420 O   0  0  0  0  0  0  0  0  0  0  0  0
    2.2724   -5.9758   25.3025 C   0  0  0  0  0  0  0  0  0  0  0  0
    3.6746   -5.6310   24.8966 N   0  0  0  0  0  0  0  0  0  0  0  0
  2  1  1  0  0  0
  2  3  1  0  0  0
  3  4  1  0  0  0
  4 19  1  0  0  0
 19 20  2  0  0  0
 20 21  1  0  0  0
 21 22  2  0  0  0
 22 23  1  0  0  0
 23 24  2  0  0  0
 24 25  1  0  0  0
 25 26  2  0  0  0
 26 27  1  0  0  0
 27 28  2  0  0  0
  4  5  1  0  0  0
  5  6  2  0  0  0
  5  7  1  0  0  0
  7  8  1  0  0  0
  8  9  1  0  0  0
  9 29  1  0  0  0
 29 30  1  0  0  0
 30 31  2  0  0  0
 31 32  1  0  0  0
 32 33  1  0  0  0
 33 34  2  0  0  0
  9 10  1  0  0  0
 10 11  2  0  0  0
 10 12  1  0  0  0
 12 13  2  0  0  0
 13 14  1  0  0  0
 14 15  2  0  0  0
 15 16  1  0  0  0
 15 17  1  0  0  0
 17 18  2  0  0  0
  7  2  1  0  0  0
 34 30  1  0  0  0
 18 12  1  0  0  0
 28 19  1  0  0  0
 18  7  1  0  0  0
 28 23  1  0  0  0
M  END
> <minimizedAffinity>
-8.24523

> <CNNscore>
0.5257572532

> <CNNaffinity>
6.4996032715

> <CNN_VS>
3.4172136784

> <CNNaffinity_variance>
0.0390540063

$$$$



 34 39  0  0  0  0  0  0  0  0999 V2000
   11.0095   -3.3764   26.1181 C   0  0  0  0  0  0  0  0  0  0  0  0
    9.6290   -2.9019   25.7726 C   0  0  0  0  0  0  0  0  0  0  0  0
    8.5685   -3.7995   26.3378 C   0  0  0  0  0  0  0  0  0  0  0  0
    7.2323   -3.2454   25.9409 N   0  0  0  0  0  0  0  0  0  0  0  0
    7.4671   -2.0053   25.1303 C   0  0  0  0  0  0  0  0  0  0  0  0
    6.4068   -1.1310   24.5292 O   0  0  0  0  0  0  0  0  0  0  0  0
    8.9484   -1.7930   25.0263 C   0  0  0  0  0  0  0  0  0  0  0  0
    8.1318   -0.7512   24.3208 C   0  0  0  0  0  0  0  0  0  0  0  0
    8.8128    0.3727   23.5975 N   0  0  0  0  0  0  0  0  0  0  0  0
   10.3104    0.4547   23.5796 C   0  0  0  0  0  0  0  0  0  0  0  0
   10.9914    1.5786   22.8563 O   0  0  0  0  0  0  0  0  0  0  0  0
   11.1271   -0.5872   24.2851 C   0  0  0  0  0  0  0  0  0  0  0  0
   12.6247   -0.5051   24.2672 C   0  0  0  0  0  0  0  0  0  0  0  0
   13.4413   -1.5470   24.9726 C   0  0  0  0  0  0  0  0  0  0  0  0
   12.7603   -2.6708   25.6959 C   0  0  0  0  0  0  0  0  0  0  0  0
   13.5770   -3.7127   26.4014 F   0  0  0  0  0  0  0  0  0  0  0  0
   11.2627   -2.7528   25.7138 C   0  0  0  0  0  0  0  0  0  0  0  0
   10.4461   -1.7110   25.0084 C   0  0  0  0  0  0  0  0  0  0  0  0
    5.8960   -3.8288   26.2927 C   0  0  0  0  0  0  0  0  0  0  0  0
    5.1248   -4.6078   25.2689 C   0  0  0  0  0  0  0  0  0  0  0  0
    3.7884   -5.1913   25.6207 N   0  0  0  0  0  0  0  0  0  0  0  0
    3.2234   -4.9957   26.9964 C   0  0  0  0  0  0  0  0  0  0  0  0
    3.9947   -4.2167   28.0202 C   0  0  0  0  0  0  0  0  0  0  0  0
    3.4296   -4.0211   29.3960 C   0  0  0  0  0  0  0  0  0  0  0  0
    4.2010   -3.2421   30.4197 C   0  0  0  0  0  0  0  0  0  0  0  0
    5.5373   -2.6587   30.0679 C   0  0  0  0  0  0  0  0  0  0  0  0
    6.1023   -2.8542   28.6922 C   0  0  0  0  0  0  0  0  0  0  0  0
    5.3311   -3.6332   27.6684 C   0  0  0  0  0  0  0  0  0  0  0  0
    7.9961    1.4145   22.8920 C   0  0  0  0  0  0  0  0  0  0  0  0
    7.6440    2.6930   23.5930 C   0  0  0  0  0  0  0  0  0  0  0  0
    6.8894    2.8118   24.8840 C   0  0  0  0  0  0  0  0  0  0  0  0
    6.7637    4.2694   25.2150 O   0  0  0  0  0  0  0  0  0  0  0  0
    7.4406    5.0515   24.1286 C   0  0  0  0  0  0  0  0  0  0  0  0
    7.9846    4.0773   23.1262 N   0  0  0  0  0  0  0  0  0  0  0  0
  2  1  1  0  0  0
  2  3  1  0  0  0
  3  4  1  0  0  0
  4 19  1  0  0  0
 19 20  2  0  0  0
 20 21  1  0  0  0
 21 22  2  0  0  0
 22 23  1  0  0  0
 23 24  2  0  0  0
 24 25  1  0  0  0
 25 26  2  0  0  0
 26 27  1  0  0  0
 27 28  2  0  0  0
  4  5  1  0  0  0
  5  6  2  0  0  0
  5  7  1  0  0  0
  7  8  1  0  0  0
  8  9  1  0  0  0
  9 29  1  0  0  0
 29 30  1  0  0  0
 30 31  2  0  0  0
 31 32  1  0  0  0
 32 33  1  0  0  0
 33 34  2  0  0  0
  9 10  1  0  0  0
 10 11  2  0  0  0
 10 12  1  0  0  0
 12 13  2  0  0  0
 13 14  1  0  0  0
 14 15  2  0  0  0
 15 16  1  0  0  0
 15 17  1  0  0  0
 17 18  2  0  0  0
  7  2  1  0  0  0
 34 30  1  0  0  0
 18 12  1  0  0  0
 28 19  1  0  0  0
 18  7  1  0  0  0
 28 23  1  0  0  0
M  END
> <minimizedAffinity>
-7.87776

> <CNNscore>
0.5138968229

> <CNNaffinity>
6.6681571007

> <CNN_VS>
3.4267446995

> <CNNaffinity_variance>
0.2556836307

$$$$



 34 39  0  0  0  0  0  0  0  0999 V2000
   11.2207   -1.5319   25.0383 C   0  0  0  0  0  0  0  0  0  0  0  0
   10.4986   -0.5168   24.2027 C   0  0  0  0  0  0  0  0  0  0  0  0
   11.2687    0.7652   24.0859 C   0  0  0  0  0  0  0  0  0  0  0  0
   10.4701    1.7099   23.2375 N   0  0  0  0  0  0  0  0  0  0  0  0
    9.2065    1.0119   22.8300 C   0  0  0  0  0  0  0  0  0  0  0  0
    8.1167    1.5888   21.9760 O   0  0  0  0  0  0  0  0  0  0  0  0
    9.2241   -0.3643   23.4265 C   0  0  0  0  0  0  0  0  0  0  0  0
    7.9980   -0.0666   22.6154 C   0  0  0  0  0  0  0  0  0  0  0  0
    6.9288   -1.1075   22.4625 N   0  0  0  0  0  0  0  0  0  0  0  0
    7.0858   -2.4462   23.1208 C   0  0  0  0  0  0  0  0  0  0  0  0
    6.0166   -3.4871   22.9679 O   0  0  0  0  0  0  0  0  0  0  0  0
    8.3120   -2.7440   23.9319 C   0  0  0  0  0  0  0  0  0  0  0  0
    8.4690   -4.0826   24.5902 C   0  0  0  0  0  0  0  0  0  0  0  0
    9.6951   -4.3803   25.4013 C   0  0  0  0  0  0  0  0  0  0  0  0
   10.7642   -3.3394   25.5541 C   0  0  0  0  0  0  0  0  0  0  0  0
   11.9904   -3.6372   26.3653 F   0  0  0  0  0  0  0  0  0  0  0  0
   10.6073   -2.0007   24.8959 C   0  0  0  0  0  0  0  0  0  0  0  0
    9.3811   -1.7030   24.0848 C   0  0  0  0  0  0  0  0  0  0  0  0
   10.8656    3.1074   22.8625 C   0  0  0  0  0  0  0  0  0  0  0  0
   12.2255    3.3734   22.2883 C   0  0  0  0  0  0  0  0  0  0  0  0
   12.6210    4.7709   21.9133 N   0  0  0  0  0  0  0  0  0  0  0  0
   11.6566    5.9023   22.1126 C   0  0  0  0  0  0  0  0  0  0  0  0
   10.2967    5.6363   22.6869 C   0  0  0  0  0  0  0  0  0  0  0  0
    9.3323    6.7678   22.8862 C   0  0  0  0  0  0  0  0  0  0  0  0
    7.9724    6.5017   23.4605 C   0  0  0  0  0  0  0  0  0  0  0  0
    7.5769    5.1043   23.8355 C   0  0  0  0  0  0  0  0  0  0  0  0
    8.5413    3.9728   23.6362 C   0  0  0  0  0  0  0  0  0  0  0  0
    9.9012    4.2388   23.0619 C   0  0  0  0  0  0  0  0  0  0  0  0
    5.7026   -0.8098   21.6514 C   0  0  0  0  0  0  0  0  0  0  0  0
    5.8376   -0.3287   20.2371 C   0  0  0  0  0  0  0  0  0  0  0  0
    7.0636   -0.4421   19.3804 C   0  0  0  0  0  0  0  0  0  0  0  0
    6.7539    0.1667   18.0450 O   0  0  0  0  0  0  0  0  0  0  0  0
    5.3365    0.6565   18.0763 C   0  0  0  0  0  0  0  0  0  0  0  0
    4.7701    0.3503   19.4311 N   0  0  0  0  0  0  0  0  0  0  0  0
  2  1  1  0  0  0
  2  3  1  0  0  0
  3  4  1  0  0  0
  4 19  1  0  0  0
 19 20  2  0  0  0
 20 21  1  0  0  0
 21 22  2  0  0  0
 22 23  1  0  0  0
 23 24  2  0  0  0
 24 25  1  0  0  0
 25 26  2  0  0  0
 26 27  1  0  0  0
 27 28  2  0  0  0
  4  5  1  0  0  0
  5  6  2  0  0  0
  5  7  1  0  0  0
  7  8  1  0  0  0
  8  9  1  0  0  0
  9 29  1  0  0  0
 29 30  1  0  0  0
 30 31  2  0  0  0
 31 32  1  0  0  0
 32 33  1  0  0  0
 33 34  2  0  0  0
  9 10  1  0  0  0
 10 11  2  0  0  0
 10 12  1  0  0  0
 12 13  2  0  0  0
 13 14  1  0  0  0
 14 15  2  0  0  0
 15 16  1  0  0  0
 15 17  1  0  0  0
 17 18  2  0  0  0
  7  2  1  0  0  0
 34 30  1  0  0  0
 18 12  1  0  0  0
 28 19  1  0  0  0
 18  7  1  0  0  0
 28 23  1  0  0  0
M  END
> <minimizedAffinity>
-9.12973

> <CNNscore>
0.5120906830

> <CNNaffinity>
6.8052611351

> <CNN_VS>
3.4849107265

> <CNNaffinity_variance>
0.2034330666

$$$$



 34 39  0  0  0  0  0  0  0  0999 V2000
    5.8193   -0.4567   26.7865 C   0  0  0  0  0  0  0  0  0  0  0  0
    6.5369   -0.0842   25.5230 C   0  0  0  0  0  0  0  0  0  0  0  0
    8.0174   -0.2977   25.6338 C   0  0  0  0  0  0  0  0  0  0  0  0
    8.6421    0.1004   24.3295 N   0  0  0  0  0  0  0  0  0  0  0  0
    7.5475    0.5600   23.4126 C   0  0  0  0  0  0  0  0  0  0  0  0
    7.7233    1.0481   22.0051 O   0  0  0  0  0  0  0  0  0  0  0  0
    6.2464    0.4459   24.1502 C   0  0  0  0  0  0  0  0  0  0  0  0
    6.1104    0.9677   22.7505 C   0  0  0  0  0  0  0  0  0  0  0  0
    4.7566    1.3216   22.2102 N   0  0  0  0  0  0  0  0  0  0  0  0
    3.5388    1.1537   23.0696 C   0  0  0  0  0  0  0  0  0  0  0  0
    2.1849    1.5076   22.5293 O   0  0  0  0  0  0  0  0  0  0  0  0
    3.6747    0.6319   24.4694 C   0  0  0  0  0  0  0  0  0  0  0  0
    2.4568    0.4641   25.3288 C   0  0  0  0  0  0  0  0  0  0  0  0
    2.5928   -0.0577   26.7285 C   0  0  0  0  0  0  0  0  0  0  0  0
    3.9466   -0.4116   27.2688 C   0  0  0  0  0  0  0  0  0  0  0  0
    4.0826   -0.9334   28.6686 F   0  0  0  0  0  0  0  0  0  0  0  0
    5.1645   -0.2437   26.4094 C   0  0  0  0  0  0  0  0  0  0  0  0
    5.0285    0.2781   25.0097 C   0  0  0  0  0  0  0  0  0  0  0  0
   10.1045    0.0482   23.9999 C   0  0  0  0  0  0  0  0  0  0  0  0
   10.6829    1.0064   23.0014 C   0  0  0  0  0  0  0  0  0  0  0  0
   12.1453    0.9541   22.6719 N   0  0  0  0  0  0  0  0  0  0  0  0
   13.0292   -0.0564   23.3408 C   0  0  0  0  0  0  0  0  0  0  0  0
   12.4507   -1.0146   24.3394 C   0  0  0  0  0  0  0  0  0  0  0  0
   13.3347   -2.0252   25.0084 C   0  0  0  0  0  0  0  0  0  0  0  0
   12.7561   -2.9834   26.0069 C   0  0  0  0  0  0  0  0  0  0  0  0
   11.2938   -2.9311   26.3365 C   0  0  0  0  0  0  0  0  0  0  0  0
   10.4099   -1.9206   25.6675 C   0  0  0  0  0  0  0  0  0  0  0  0
   10.9883   -0.9624   24.6690 C   0  0  0  0  0  0  0  0  0  0  0  0
    4.6207    1.8434   20.8104 C   0  0  0  0  0  0  0  0  0  0  0  0
    4.9544    0.9600   19.6450 C   0  0  0  0  0  0  0  0  0  0  0  0
    4.5637    1.1996   18.2168 C   0  0  0  0  0  0  0  0  0  0  0  0
    5.1052    0.0696   17.3922 O   0  0  0  0  0  0  0  0  0  0  0  0
    5.8306   -0.8684   18.3109 C   0  0  0  0  0  0  0  0  0  0  0  0
    5.7374   -0.3181   19.7032 N   0  0  0  0  0  0  0  0  0  0  0  0
  2  1  1  0  0  0
  2  3  1  0  0  0
  3  4  1  0  0  0
  4 19  1  0  0  0
 19 20  2  0  0  0
 20 21  1  0  0  0
 21 22  2  0  0  0
 22 23  1  0  0  0
 23 24  2  0  0  0
 24 25  1  0  0  0
 25 26  2  0  0  0
 26 27  1  0  0  0
 27 28  2  0  0  0
  4  5  1  0  0  0
  5  6  2  0  0  0
  5  7  1  0  0  0
  7  8  1  0  0  0
  8  9  1  0  0  0
  9 29  1  0  0  0
 29 30  1  0  0  0
 30 31  2  0  0  0
 31 32  1  0  0  0
 32 33  1  0  0  0
 33 34  2  0  0  0
  9 10  1  0  0  0
 10 11  2  0  0  0
 10 12  1  0  0  0
 12 13  2  0  0  0
 13 14  1  0  0  0
 14 15  2  0  0  0
 15 16  1  0  0  0
 15 17  1  0  0  0
 17 18  2  0  0  0
  7  2  1  0  0  0
 34 30  1  0  0  0
 18 12  1  0  0  0
 28 19  1  0  0  0
 18  7  1  0  0  0
 28 23  1  0  0  0
M  END
> <minimizedAffinity>
-7.96720

> <CNNscore>
0.4442473352

> <CNNaffinity>
6.3772544861

> <CNN_VS>
2.8330783844

> <CNNaffinity_variance>
0.0672561899

$$$$



 34 39  0  0  0  0  0  0  0  0999 V2000
   11.0179    0.0543   22.4979 C   0  0  0  0  0  0  0  0  0  0  0  0
    9.6335   -0.4718   22.2601 C   0  0  0  0  0  0  0  0  0  0  0  0
    8.9167    0.2961   21.1893 C   0  0  0  0  0  0  0  0  0  0  0  0
    7.5506   -0.3013   21.0260 N   0  0  0  0  0  0  0  0  0  0  0  0
    7.4230   -1.4385   21.9958 C   0  0  0  0  0  0  0  0  0  0  0  0
    6.2194   -2.3162   22.1719 O   0  0  0  0  0  0  0  0  0  0  0  0
    8.7103   -1.5439   22.7586 C   0  0  0  0  0  0  0  0  0  0  0  0
    7.6821   -2.5621   23.1535 C   0  0  0  0  0  0  0  0  0  0  0  0
    7.9918   -3.5636   24.2263 N   0  0  0  0  0  0  0  0  0  0  0  0
    9.3297   -3.5470   24.9042 C   0  0  0  0  0  0  0  0  0  0  0  0
    9.6395   -4.5486   25.9770 O   0  0  0  0  0  0  0  0  0  0  0  0
   10.3581   -2.5288   24.5092 C   0  0  0  0  0  0  0  0  0  0  0  0
   11.6960   -2.5122   25.1871 C   0  0  0  0  0  0  0  0  0  0  0  0
   12.7242   -1.4941   24.7922 C   0  0  0  0  0  0  0  0  0  0  0  0
   12.4145   -0.4925   23.7194 C   0  0  0  0  0  0  0  0  0  0  0  0
   13.4428    0.5257   23.3244 F   0  0  0  0  0  0  0  0  0  0  0  0
   11.0766   -0.5091   23.0415 C   0  0  0  0  0  0  0  0  0  0  0  0
   10.0483   -1.5273   23.4364 C   0  0  0  0  0  0  0  0  0  0  0  0
    6.4970    0.1578   20.0620 C   0  0  0  0  0  0  0  0  0  0  0  0
    6.3884   -0.4812   18.7094 C   0  0  0  0  0  0  0  0  0  0  0  0
    5.3348   -0.0221   17.7455 N   0  0  0  0  0  0  0  0  0  0  0  0
    4.3898    1.0760   18.1343 C   0  0  0  0  0  0  0  0  0  0  0  0
    4.4985    1.7150   19.4870 C   0  0  0  0  0  0  0  0  0  0  0  0
    3.5535    2.8132   19.8758 C   0  0  0  0  0  0  0  0  0  0  0  0
    3.6622    3.4521   21.2286 C   0  0  0  0  0  0  0  0  0  0  0  0
    4.7158    2.9930   22.1924 C   0  0  0  0  0  0  0  0  0  0  0  0
    5.6607    1.8949   21.8036 C   0  0  0  0  0  0  0  0  0  0  0  0
    5.5521    1.2559   20.4509 C   0  0  0  0  0  0  0  0  0  0  0  0
    6.9635   -4.5818   24.6212 C   0  0  0  0  0  0  0  0  0  0  0  0
    6.1735   -5.2981   23.5663 C   0  0  0  0  0  0  0  0  0  0  0  0
    4.7258   -5.6802   23.6563 C   0  0  0  0  0  0  0  0  0  0  0  0
    4.3500   -6.3762   22.3818 O   0  0  0  0  0  0  0  0  0  0  0  0
    5.5656   -6.4244   21.5041 C   0  0  0  0  0  0  0  0  0  0  0  0
    6.6925   -5.7580   22.2362 N   0  0  0  0  0  0  0  0  0  0  0  0
  2  1  1  0  0  0
  2  3  1  0  0  0
  3  4  1  0  0  0
  4 19  1  0  0  0
 19 20  2  0  0  0
 20 21  1  0  0  0
 21 22  2  0  0  0
 22 23  1  0  0  0
 23 24  2  0  0  0
 24 25  1  0  0  0
 25 26  2  0  0  0
 26 27  1  0  0  0
 27 28  2  0  0  0
  4  5  1  0  0  0
  5  6  2  0  0  0
  5  7  1  0  0  0
  7  8  1  0  0  0
  8  9  1  0  0  0
  9 29  1  0  0  0
 29 30  1  0  0  0
 30 31  2  0  0  0
 31 32  1  0  0  0
 32 33  1  0  0  0
 33 34  2  0  0  0
  9 10  1  0  0  0
 10 11  2  0  0  0
 10 12  1  0  0  0
 12 13  2  0  0  0
 13 14  1  0  0  0
 14 15  2  0  0  0
 15 16  1  0  0  0
 15 17  1  0  0  0
 17 18  2  0  0  0
  7  2  1  0  0  0
 34 30  1  0  0  0
 18 12  1  0  0  0
 28 19  1  0  0  0
 18  7  1  0  0  0
 28 23  1  0  0  0
M  END
> <minimizedAffinity>
-9.33536

> <CNNscore>
0.3768131733

> <CNNaffinity>
6.6111173630

> <CNN_VS>
2.4911561012

> <CNNaffinity_variance>
0.1280748248

$$$$



 34 39  0  0  0  0  0  0  0  0999 V2000
    6.1255   -5.1056   22.5856 C   0  0  0  0  0  0  0  0  0  0  0  0
    6.7536   -4.2356   23.6338 C   0  0  0  0  0  0  0  0  0  0  0  0
    7.9549   -3.5048   23.1114 C   0  0  0  0  0  0  0  0  0  0  0  0
    8.5088   -2.6673   24.2258 N   0  0  0  0  0  0  0  0  0  0  0  0
    7.6499   -2.8806   25.4369 C   0  0  0  0  0  0  0  0  0  0  0  0
    7.8420   -2.2375   26.7783 O   0  0  0  0  0  0  0  0  0  0  0  0
    6.5651   -3.8498   25.0710 C   0  0  0  0  0  0  0  0  0  0  0  0
    6.5032   -3.3727   26.4917 C   0  0  0  0  0  0  0  0  0  0  0  0
    5.4201   -3.8690   27.4031 N   0  0  0  0  0  0  0  0  0  0  0  0
    4.3988   -4.8424   26.8937 C   0  0  0  0  0  0  0  0  0  0  0  0
    3.3157   -5.3387   27.8050 O   0  0  0  0  0  0  0  0  0  0  0  0
    4.4607   -5.3195   25.4729 C   0  0  0  0  0  0  0  0  0  0  0  0
    3.4394   -6.2929   24.9635 C   0  0  0  0  0  0  0  0  0  0  0  0
    3.5013   -6.7700   23.5428 C   0  0  0  0  0  0  0  0  0  0  0  0
    4.5844   -6.2737   22.6314 C   0  0  0  0  0  0  0  0  0  0  0  0
    4.6462   -6.7508   21.2106 F   0  0  0  0  0  0  0  0  0  0  0  0
    5.6056   -5.3003   23.1408 C   0  0  0  0  0  0  0  0  0  0  0  0
    5.5438   -4.8232   24.5615 C   0  0  0  0  0  0  0  0  0  0  0  0
    9.7107   -1.7736   24.1436 C   0  0  0  0  0  0  0  0  0  0  0  0
    9.6631   -0.5277   23.3097 C   0  0  0  0  0  0  0  0  0  0  0  0
   10.8650    0.3661   23.2275 N   0  0  0  0  0  0  0  0  0  0  0  0
   12.1143    0.0138   23.9791 C   0  0  0  0  0  0  0  0  0  0  0  0
   12.1619   -1.2321   24.8130 C   0  0  0  0  0  0  0  0  0  0  0  0
   13.4113   -1.5843   25.5647 C   0  0  0  0  0  0  0  0  0  0  0  0
   13.4588   -2.8303   26.3985 C   0  0  0  0  0  0  0  0  0  0  0  0
   12.2569   -3.7240   26.4807 C   0  0  0  0  0  0  0  0  0  0  0  0
   11.0076   -3.3718   25.7291 C   0  0  0  0  0  0  0  0  0  0  0  0
   10.9600   -2.1259   24.8952 C   0  0  0  0  0  0  0  0  0  0  0  0
    5.3583   -3.3919   28.8239 C   0  0  0  0  0  0  0  0  0  0  0  0
    5.1373   -1.9377   29.1178 C   0  0  0  0  0  0  0  0  0  0  0  0
    5.5421   -1.2201   30.3712 C   0  0  0  0  0  0  0  0  0  0  0  0
    5.1277    0.2153   30.2379 O   0  0  0  0  0  0  0  0  0  0  0  0
    4.4668    0.3849   28.9020 C   0  0  0  0  0  0  0  0  0  0  0  0
    4.4728   -0.9457   28.2098 N   0  0  0  0  0  0  0  0  0  0  0  0
  2  1  1  0  0  0
  2  3  1  0  0  0
  3  4  1  0  0  0
  4 19  1  0  0  0
 19 20  2  0  0  0
 20 21  1  0  0  0
 21 22  2  0  0  0
 22 23  1  0  0  0
 23 24  2  0  0  0
 24 25  1  0  0  0
 25 26  2  0  0  0
 26 27  1  0  0  0
 27 28  2  0  0  0
  4  5  1  0  0  0
  5  6  2  0  0  0
  5  7  1  0  0  0
  7  8  1  0  0  0
  8  9  1  0  0  0
  9 29  1  0  0  0
 29 30  1  0  0  0
 30 31  2  0  0  0
 31 32  1  0  0  0
 32 33  1  0  0  0
 33 34  2  0  0  0
  9 10  1  0  0  0
 10 11  2  0  0  0
 10 12  1  0  0  0
 12 13  2  0  0  0
 13 14  1  0  0  0
 14 15  2  0  0  0
 15 16  1  0  0  0
 15 17  1  0  0  0
 17 18  2  0  0  0
  7  2  1  0  0  0
 34 30  1  0  0  0
 18 12  1  0  0  0
 28 19  1  0  0  0
 18  7  1  0  0  0
 28 23  1  0  0  0
M  END
> <minimizedAffinity>
-7.61311

> <CNNscore>
0.3516097963

> <CNNaffinity>
6.4336318970

> <CNN_VS>
2.2621281147

> <CNNaffinity_variance>
0.1229328066

$$$$



 34 39  0  0  0  0  0  0  0  0999 V2000
    7.2933    0.2030   20.1583 C   0  0  0  0  0  0  0  0  0  0  0  0
    7.6134    0.0550   21.6163 C   0  0  0  0  0  0  0  0  0  0  0  0
    9.0414   -0.3459   21.8402 C   0  0  0  0  0  0  0  0  0  0  0  0
    9.2624   -0.4675   23.3188 N   0  0  0  0  0  0  0  0  0  0  0  0
    7.9709   -0.1418   24.0088 C   0  0  0  0  0  0  0  0  0  0  0  0
    7.7392   -0.1395   25.4908 O   0  0  0  0  0  0  0  0  0  0  0  0
    6.9518    0.1811   22.9566 C   0  0  0  0  0  0  0  0  0  0  0  0
    6.4282    0.2667   24.3596 C   0  0  0  0  0  0  0  0  0  0  0  0
    4.9985    0.6486   24.6047 N   0  0  0  0  0  0  0  0  0  0  0  0
    4.0923    0.9449   23.4467 C   0  0  0  0  0  0  0  0  0  0  0  0
    2.6626    1.3269   23.6917 O   0  0  0  0  0  0  0  0  0  0  0  0
    4.6158    0.8593   22.0436 C   0  0  0  0  0  0  0  0  0  0  0  0
    3.7097    1.1556   20.8856 C   0  0  0  0  0  0  0  0  0  0  0  0
    4.2332    1.0700   19.4825 C   0  0  0  0  0  0  0  0  0  0  0  0
    5.6629    0.6881   19.2375 C   0  0  0  0  0  0  0  0  0  0  0  0
    6.1864    0.6025   17.8344 F   0  0  0  0  0  0  0  0  0  0  0  0
    6.5691    0.3918   20.3955 C   0  0  0  0  0  0  0  0  0  0  0  0
    6.0456    0.4774   21.7985 C   0  0  0  0  0  0  0  0  0  0  0  0
   10.5489   -0.8480   23.9897 C   0  0  0  0  0  0  0  0  0  0  0  0
   11.7543    0.0344   23.8554 C   0  0  0  0  0  0  0  0  0  0  0  0
   13.0408   -0.3461   24.5263 N   0  0  0  0  0  0  0  0  0  0  0  0
   13.1218   -1.6090   25.3316 C   0  0  0  0  0  0  0  0  0  0  0  0
   11.9162   -2.4914   25.4659 C   0  0  0  0  0  0  0  0  0  0  0  0
   11.9972   -3.7544   26.2713 C   0  0  0  0  0  0  0  0  0  0  0  0
   10.7916   -4.6367   26.4056 C   0  0  0  0  0  0  0  0  0  0  0  0
    9.5052   -4.2562   25.7347 C   0  0  0  0  0  0  0  0  0  0  0  0
    9.4243   -2.9933   24.9294 C   0  0  0  0  0  0  0  0  0  0  0  0
   10.6297   -2.1109   24.7950 C   0  0  0  0  0  0  0  0  0  0  0  0
    4.4750    0.7342   26.0078 C   0  0  0  0  0  0  0  0  0  0  0  0
    5.2425    1.4928   27.0497 C   0  0  0  0  0  0  0  0  0  0  0  0
    5.6526    2.9334   26.9680 C   0  0  0  0  0  0  0  0  0  0  0  0
    6.3981    3.2750   28.2240 O   0  0  0  0  0  0  0  0  0  0  0  0
    6.4488    2.0455   29.0819 C   0  0  0  0  0  0  0  0  0  0  0  0
    5.7346    0.9441   28.3561 N   0  0  0  0  0  0  0  0  0  0  0  0
  2  1  1  0  0  0
  2  3  1  0  0  0
  3  4  1  0  0  0
  4 19  1  0  0  0
 19 20  2  0  0  0
 20 21  1  0  0  0
 21 22  2  0  0  0
 22 23  1  0  0  0
 23 24  2  0  0  0
 24 25  1  0  0  0
 25 26  2  0  0  0
 26 27  1  0  0  0
 27 28  2  0  0  0
  4  5  1  0  0  0
  5  6  2  0  0  0
  5  7  1  0  0  0
  7  8  1  0  0  0
  8  9  1  0  0  0
  9 29  1  0  0  0
 29 30  1  0  0  0
 30 31  2  0  0  0
 31 32  1  0  0  0
 32 33  1  0  0  0
 33 34  2  0  0  0
  9 10  1  0  0  0
 10 11  2  0  0  0
 10 12  1  0  0  0
 12 13  2  0  0  0
 13 14  1  0  0  0
 14 15  2  0  0  0
 15 16  1  0  0  0
 15 17  1  0  0  0
 17 18  2  0  0  0
  7  2  1  0  0  0
 34 30  1  0  0  0
 18 12  1  0  0  0
 28 19  1  0  0  0
 18  7  1  0  0  0
 28 23  1  0  0  0
M  END
> <minimizedAffinity>
-8.46590

> <CNNscore>
0.3476550579

> <CNNaffinity>
6.4225578308

> <CNN_VS>
2.2328348160

> <CNNaffinity_variance>
0.0526648574

$$$$



 34 39  0  0  0  0  0  0  0  0999 V2000
   10.7104   -1.8762   25.4108 C   0  0  0  0  0  0  0  0  0  0  0  0
    9.2405   -1.9494   25.1207 C   0  0  0  0  0  0  0  0  0  0  0  0
    8.5621   -3.0199   25.9231 C   0  0  0  0  0  0  0  0  0  0  0  0
    7.1054   -3.0145   25.5652 N   0  0  0  0  0  0  0  0  0  0  0  0
    6.8836   -1.9407   24.5416 C   0  0  0  0  0  0  0  0  0  0  0  0
    5.5724   -1.5872   23.9046 O   0  0  0  0  0  0  0  0  0  0  0  0
    8.2032   -1.2825   24.2669 C   0  0  0  0  0  0  0  0  0  0  0  0
    7.0617   -0.7141   23.4769 C   0  0  0  0  0  0  0  0  0  0  0  0
    7.3018    0.4131   22.5169 N   0  0  0  0  0  0  0  0  0  0  0  0
    8.6833    0.9721   22.3469 C   0  0  0  0  0  0  0  0  0  0  0  0
    8.9233    2.0994   21.3869 O   0  0  0  0  0  0  0  0  0  0  0  0
    9.8248    0.4038   23.1369 C   0  0  0  0  0  0  0  0  0  0  0  0
   11.2063    0.9628   22.9668 C   0  0  0  0  0  0  0  0  0  0  0  0
   12.3478    0.3944   23.7568 C   0  0  0  0  0  0  0  0  0  0  0  0
   12.1077   -0.7328   24.7168 C   0  0  0  0  0  0  0  0  0  0  0  0
   13.2492   -1.3012   25.5067 F   0  0  0  0  0  0  0  0  0  0  0  0
   10.7262   -1.2918   24.8868 C   0  0  0  0  0  0  0  0  0  0  0  0
    9.5848   -0.7235   24.0969 C   0  0  0  0  0  0  0  0  0  0  0  0
    6.0550   -3.9233   26.1315 C   0  0  0  0  0  0  0  0  0  0  0  0
    5.5073   -5.0456   25.3008 C   0  0  0  0  0  0  0  0  0  0  0  0
    4.4568   -5.9544   25.8670 N   0  0  0  0  0  0  0  0  0  0  0  0
    3.9542   -5.7408   27.2641 C   0  0  0  0  0  0  0  0  0  0  0  0
    4.5020   -4.6184   28.0948 C   0  0  0  0  0  0  0  0  0  0  0  0
    3.9992   -4.4048   29.4919 C   0  0  0  0  0  0  0  0  0  0  0  0
    4.5471   -3.2824   30.3226 C   0  0  0  0  0  0  0  0  0  0  0  0
    5.5975   -2.3736   29.7563 C   0  0  0  0  0  0  0  0  0  0  0  0
    6.1001   -2.5873   28.3593 C   0  0  0  0  0  0  0  0  0  0  0  0
    5.5524   -3.7096   27.5286 C   0  0  0  0  0  0  0  0  0  0  0  0
    6.1602    0.9815   21.7270 C   0  0  0  0  0  0  0  0  0  0  0  0
    5.9989    0.6244   20.2791 C   0  0  0  0  0  0  0  0  0  0  0  0
    6.9048   -0.2695   19.4852 C   0  0  0  0  0  0  0  0  0  0  0  0
    6.3691   -0.3479   18.0863 O   0  0  0  0  0  0  0  0  0  0  0  0
    5.1321    0.4976   18.0156 C   0  0  0  0  0  0  0  0  0  0  0  0
    4.9033    1.0985   19.3708 N   0  0  0  0  0  0  0  0  0  0  0  0
  2  1  1  0  0  0
  2  3  1  0  0  0
  3  4  1  0  0  0
  4 19  1  0  0  0
 19 20  2  0  0  0
 20 21  1  0  0  0
 21 22  2  0  0  0
 22 23  1  0  0  0
 23 24  2  0  0  0
 24 25  1  0  0  0
 25 26  2  0  0  0
 26 27  1  0  0  0
 27 28  2  0  0  0
  4  5  1  0  0  0
  5  6  2  0  0  0
  5  7  1  0  0  0
  7  8  1  0  0  0
  8  9  1  0  0  0
  9 29  1  0  0  0
 29 30  1  0  0  0
 30 31  2  0  0  0
 31 32  1  0  0  0
 32 33  1  0  0  0
 33 34  2  0  0  0
  9 10  1  0  0  0
 10 11  2  0  0  0
 10 12  1  0  0  0
 12 13  2  0  0  0
 13 14  1  0  0  0
 14 15  2  0  0  0
 15 16  1  0  0  0
 15 17  1  0  0  0
 17 18  2  0  0  0
  7  2  1  0  0  0
 34 30  1  0  0  0
 18 12  1  0  0  0
 28 19  1  0  0  0
 18  7  1  0  0  0
 28 23  1  0  0  0
M  END
> <minimizedAffinity>
-8.95528

> <CNNscore>
0.3212812245

> <CNNaffinity>
6.2895855904

> <CNN_VS>
2.0207257271

> <CNNaffinity_variance>
0.1408787668

$$$$
