


 24 27  0  0  0  0  0  0  0  0999 V2000
   -7.8570   -3.7466  -22.4709 O   0  0  0  0  0  0  0  0  0  0  0  0
   -7.5210   -2.2847  -22.4593 C   0  0  0  0  0  0  0  0  0  0  0  0
   -8.5974   -1.2660  -22.6904 N   0  0  0  0  0  0  0  0  0  0  0  0
   -8.2616    0.1959  -22.6789 C   0  0  0  0  0  0  0  0  0  0  0  0
   -9.3380    1.2146  -22.9100 C   0  0  0  0  0  0  0  0  0  0  0  0
  -10.7503    0.7715  -23.1527 C   0  0  0  0  0  0  0  0  0  0  0  0
  -11.8268    1.7903  -23.3838 C   0  0  0  0  0  0  0  0  0  0  0  0
  -11.4909    3.2521  -23.3722 Cl  0  0  0  0  0  0  0  0  0  0  0  0
  -13.2392    1.3471  -23.6265 C   0  0  0  0  0  0  0  0  0  0  0  0
  -13.5751   -0.1147  -23.6381 C   0  0  0  0  0  0  0  0  0  0  0  0
  -12.4986   -1.1335  -23.4069 C   0  0  0  0  0  0  0  0  0  0  0  0
  -11.0863   -0.6904  -23.1642 C   0  0  0  0  0  0  0  0  0  0  0  0
  -10.0098   -1.7091  -22.9331 C   0  0  0  0  0  0  0  0  0  0  0  0
   -6.1087   -1.8416  -22.2166 C   0  0  0  0  0  0  0  0  0  0  0  0
   -5.7454   -1.1668  -20.9271 C   0  0  0  0  0  0  0  0  0  0  0  0
   -6.4972   -1.4947  -19.6713 C   0  0  0  0  0  0  0  0  0  0  0  0
   -6.1339   -0.8199  -18.3818 N   0  0  0  0  0  0  0  0  0  0  0  0
   -5.0188    0.1827  -18.3482 C   0  0  0  0  0  0  0  0  0  0  0  0
   -4.2669    0.5106  -19.6041 C   0  0  0  0  0  0  0  0  0  0  0  0
   -3.1518    1.5133  -19.5705 C   0  0  0  0  0  0  0  0  0  0  0  0
   -2.4000    1.8412  -20.8264 C   0  0  0  0  0  0  0  0  0  0  0  0
   -2.7633    1.1664  -22.1158 C   0  0  0  0  0  0  0  0  0  0  0  0
   -3.8784    0.1637  -22.1494 C   0  0  0  0  0  0  0  0  0  0  0  0
   -4.6302   -0.1641  -20.8936 C   0  0  0  0  0  0  0  0  0  0  0  0
  1  2  2  0  0  0
  2 14  1  0  0  0
 14 15  1  0  0  0
 15 16  2  0  0  0
 16 17  1  0  0  0
 17 18  2  0  0  0
 18 19  1  0  0  0
 19 20  2  0  0  0
 20 21  1  0  0  0
 21 22  2  0  0  0
 22 23  1  0  0  0
 23 24  2  0  0  0
  2  3  1  0  0  0
  3  4  1  0  0  0
  4  5  1  0  0  0
  5  6  1  0  0  0
  6  7  2  0  0  0
  7  8  1  0  0  0
  7  9  1  0  0  0
  9 10  2  0  0  0
 10 11  1  0  0  0
 11 12  2  0  0  0
 12 13  1  0  0  0
 24 15  1  0  0  0
 13  3  1  0  0  0
 24 19  1  0  0  0
 12  6  1  0  0  0
M  END
> <minimizedAffinity>
-7.87022

> <CNNscore>
0.4832578599

> <CNNaffinity>
5.2822432518

> <CNN_VS>
2.5526854992

> <CNNaffinity_variance>
0.3680282533

$$$$



 24 27  0  0  0  0  0  0  0  0999 V2000
   -7.7777   -0.0233  -20.7640 O   0  0  0  0  0  0  0  0  0  0  0  0
   -6.8462   -1.1716  -21.0163 C   0  0  0  0  0  0  0  0  0  0  0  0
   -7.2355   -2.2560  -21.9768 N   0  0  0  0  0  0  0  0  0  0  0  0
   -6.3041   -3.4043  -22.2292 C   0  0  0  0  0  0  0  0  0  0  0  0
   -6.6934   -4.4887  -23.1896 C   0  0  0  0  0  0  0  0  0  0  0  0
   -8.0142   -4.4248  -23.8977 C   0  0  0  0  0  0  0  0  0  0  0  0
   -8.4035   -5.5093  -24.8582 C   0  0  0  0  0  0  0  0  0  0  0  0
   -7.4720   -6.6576  -25.1105 Cl  0  0  0  0  0  0  0  0  0  0  0  0
   -9.7243   -5.4453  -25.5663 C   0  0  0  0  0  0  0  0  0  0  0  0
  -10.6558   -4.2970  -25.3139 C   0  0  0  0  0  0  0  0  0  0  0  0
  -10.2665   -3.2126  -24.3534 C   0  0  0  0  0  0  0  0  0  0  0  0
   -8.9457   -3.2765  -23.6454 C   0  0  0  0  0  0  0  0  0  0  0  0
   -8.5564   -2.1921  -22.6849 C   0  0  0  0  0  0  0  0  0  0  0  0
   -5.5254   -1.2355  -20.3082 C   0  0  0  0  0  0  0  0  0  0  0  0
   -4.5937   -0.0608  -20.3514 C   0  0  0  0  0  0  0  0  0  0  0  0
   -4.2920    0.7037  -19.0966 C   0  0  0  0  0  0  0  0  0  0  0  0
   -3.3603    1.8784  -19.1397 N   0  0  0  0  0  0  0  0  0  0  0  0
   -2.7302    2.2887  -20.4376 C   0  0  0  0  0  0  0  0  0  0  0  0
   -3.0319    1.5242  -21.6925 C   0  0  0  0  0  0  0  0  0  0  0  0
   -2.4018    1.9344  -22.9904 C   0  0  0  0  0  0  0  0  0  0  0  0
   -2.7034    1.1700  -24.2452 C   0  0  0  0  0  0  0  0  0  0  0  0
   -3.6352   -0.0048  -24.2021 C   0  0  0  0  0  0  0  0  0  0  0  0
   -4.2652   -0.4150  -22.9042 C   0  0  0  0  0  0  0  0  0  0  0  0
   -3.9636    0.3495  -21.6494 C   0  0  0  0  0  0  0  0  0  0  0  0
  1  2  2  0  0  0
  2 14  1  0  0  0
 14 15  1  0  0  0
 15 16  2  0  0  0
 16 17  1  0  0  0
 17 18  2  0  0  0
 18 19  1  0  0  0
 19 20  2  0  0  0
 20 21  1  0  0  0
 21 22  2  0  0  0
 22 23  1  0  0  0
 23 24  2  0  0  0
  2  3  1  0  0  0
  3  4  1  0  0  0
  4  5  1  0  0  0
  5  6  1  0  0  0
  6  7  2  0  0  0
  7  8  1  0  0  0
  7  9  1  0  0  0
  9 10  2  0  0  0
 10 11  1  0  0  0
 11 12  2  0  0  0
 12 13  1  0  0  0
 24 15  1  0  0  0
 13  3  1  0  0  0
 24 19  1  0  0  0
 12  6  1  0  0  0
M  END
> <minimizedAffinity>
-6.87307

> <CNNscore>
0.4641691446

> <CNNaffinity>
5.0488772392

> <CNN_VS>
2.3435330391

> <CNNaffinity_variance>
0.1400367916

$$$$



 24 27  0  0  0  0  0  0  0  0999 V2000
   -8.1903   -2.1524  -21.7121 O   0  0  0  0  0  0  0  0  0  0  0  0
   -7.0215   -2.9662  -22.1831 C   0  0  0  0  0  0  0  0  0  0  0  0
   -7.1351   -3.7888  -23.4323 N   0  0  0  0  0  0  0  0  0  0  0  0
   -5.9664   -4.6026  -23.9033 C   0  0  0  0  0  0  0  0  0  0  0  0
   -6.0800   -5.4251  -25.1525 C   0  0  0  0  0  0  0  0  0  0  0  0
   -7.3623   -5.4339  -25.9307 C   0  0  0  0  0  0  0  0  0  0  0  0
   -7.4759   -6.2565  -27.1799 C   0  0  0  0  0  0  0  0  0  0  0  0
   -6.3072   -7.0702  -27.6509 Cl  0  0  0  0  0  0  0  0  0  0  0  0
   -8.7582   -6.2652  -27.9581 C   0  0  0  0  0  0  0  0  0  0  0  0
   -9.9269   -5.4515  -27.4871 C   0  0  0  0  0  0  0  0  0  0  0  0
   -9.8133   -4.6289  -26.2379 C   0  0  0  0  0  0  0  0  0  0  0  0
   -8.5310   -4.6201  -25.4597 C   0  0  0  0  0  0  0  0  0  0  0  0
   -8.4175   -3.7976  -24.2105 C   0  0  0  0  0  0  0  0  0  0  0  0
   -5.7392   -2.9574  -21.4049 C   0  0  0  0  0  0  0  0  0  0  0  0
   -5.4920   -1.8918  -20.3786 C   0  0  0  0  0  0  0  0  0  0  0  0
   -5.9333   -2.0998  -18.9602 C   0  0  0  0  0  0  0  0  0  0  0  0
   -5.6862   -1.0342  -17.9339 N   0  0  0  0  0  0  0  0  0  0  0  0
   -4.9977    0.2394  -18.3259 C   0  0  0  0  0  0  0  0  0  0  0  0
   -4.5563    0.4475  -19.7444 C   0  0  0  0  0  0  0  0  0  0  0  0
   -3.8678    1.7211  -20.1365 C   0  0  0  0  0  0  0  0  0  0  0  0
   -3.4265    1.9291  -21.5549 C   0  0  0  0  0  0  0  0  0  0  0  0
   -3.6736    0.8635  -22.5812 C   0  0  0  0  0  0  0  0  0  0  0  0
   -4.3621   -0.4101  -22.1891 C   0  0  0  0  0  0  0  0  0  0  0  0
   -4.8035   -0.6181  -20.7707 C   0  0  0  0  0  0  0  0  0  0  0  0
  1  2  2  0  0  0
  2 14  1  0  0  0
 14 15  1  0  0  0
 15 16  2  0  0  0
 16 17  1  0  0  0
 17 18  2  0  0  0
 18 19  1  0  0  0
 19 20  2  0  0  0
 20 21  1  0  0  0
 21 22  2  0  0  0
 22 23  1  0  0  0
 23 24  2  0  0  0
  2  3  1  0  0  0
  3  4  1  0  0  0
  4  5  1  0  0  0
  5  6  1  0  0  0
  6  7  2  0  0  0
  7  8  1  0  0  0
  7  9  1  0  0  0
  9 10  2  0  0  0
 10 11  1  0  0  0
 11 12  2  0  0  0
 12 13  1  0  0  0
 24 15  1  0  0  0
 13  3  1  0  0  0
 24 19  1  0  0  0
 12  6  1  0  0  0
M  END
> <minimizedAffinity>
-7.36296

> <CNNscore>
0.4580980241

> <CNNaffinity>
5.1299777031

> <CNN_VS>
2.3500325680

> <CNNaffinity_variance>
0.0965893120

$$$$



 24 27  0  0  0  0  0  0  0  0999 V2000
   -8.1507   -0.3849  -20.6047 O   0  0  0  0  0  0  0  0  0  0  0  0
   -7.4329   -0.5069  -21.9162 C   0  0  0  0  0  0  0  0  0  0  0  0
   -6.0026   -0.0703  -22.0318 N   0  0  0  0  0  0  0  0  0  0  0  0
   -5.2848   -0.1923  -23.3432 C   0  0  0  0  0  0  0  0  0  0  0  0
   -3.8544    0.2443  -23.4588 C   0  0  0  0  0  0  0  0  0  0  0  0
   -3.1418    0.8029  -22.2629 C   0  0  0  0  0  0  0  0  0  0  0  0
   -1.7114    1.2395  -22.3785 C   0  0  0  0  0  0  0  0  0  0  0  0
   -0.9936    1.1175  -23.6899 Cl  0  0  0  0  0  0  0  0  0  0  0  0
   -0.9988    1.7981  -21.1826 C   0  0  0  0  0  0  0  0  0  0  0  0
   -1.7165    1.9201  -19.8711 C   0  0  0  0  0  0  0  0  0  0  0  0
   -3.1469    1.4835  -19.7556 C   0  0  0  0  0  0  0  0  0  0  0  0
   -3.8596    0.9249  -20.9514 C   0  0  0  0  0  0  0  0  0  0  0  0
   -5.2899    0.4883  -20.8358 C   0  0  0  0  0  0  0  0  0  0  0  0
   -8.1456   -1.0655  -23.1120 C   0  0  0  0  0  0  0  0  0  0  0  0
   -9.6319   -1.2637  -23.0745 C   0  0  0  0  0  0  0  0  0  0  0  0
  -10.2005   -2.6243  -22.7996 C   0  0  0  0  0  0  0  0  0  0  0  0
  -11.6868   -2.8224  -22.7620 N   0  0  0  0  0  0  0  0  0  0  0  0
  -12.6047   -1.6601  -22.9993 C   0  0  0  0  0  0  0  0  0  0  0  0
  -12.0362   -0.2994  -23.2743 C   0  0  0  0  0  0  0  0  0  0  0  0
  -12.9540    0.8630  -23.5116 C   0  0  0  0  0  0  0  0  0  0  0  0
  -12.3855    2.2235  -23.7865 C   0  0  0  0  0  0  0  0  0  0  0  0
  -10.8991    2.4217  -23.8241 C   0  0  0  0  0  0  0  0  0  0  0  0
   -9.9813    1.2593  -23.5867 C   0  0  0  0  0  0  0  0  0  0  0  0
  -10.5498   -0.1012  -23.3118 C   0  0  0  0  0  0  0  0  0  0  0  0
  1  2  2  0  0  0
  2 14  1  0  0  0
 14 15  1  0  0  0
 15 16  2  0  0  0
 16 17  1  0  0  0
 17 18  2  0  0  0
 18 19  1  0  0  0
 19 20  2  0  0  0
 20 21  1  0  0  0
 21 22  2  0  0  0
 22 23  1  0  0  0
 23 24  2  0  0  0
  2  3  1  0  0  0
  3  4  1  0  0  0
  4  5  1  0  0  0
  5  6  1  0  0  0
  6  7  2  0  0  0
  7  8  1  0  0  0
  7  9  1  0  0  0
  9 10  2  0  0  0
 10 11  1  0  0  0
 11 12  2  0  0  0
 12 13  1  0  0  0
 24 15  1  0  0  0
 13  3  1  0  0  0
 24 19  1  0  0  0
 12  6  1  0  0  0
M  END
> <minimizedAffinity>
-6.90653

> <CNNscore>
0.4306885004

> <CNNaffinity>
5.0027699471

> <CNN_VS>
2.1546354294

> <CNNaffinity_variance>
0.0542732663

$$$$



 24 27  0  0  0  0  0  0  0  0999 V2000
   -5.0298   -3.0202  -20.0531 O   0  0  0  0  0  0  0  0  0  0  0  0
   -5.9356   -2.1787  -20.9026 C   0  0  0  0  0  0  0  0  0  0  0  0
   -6.7263   -2.8106  -22.0096 N   0  0  0  0  0  0  0  0  0  0  0  0
   -7.6321   -1.9692  -22.8591 C   0  0  0  0  0  0  0  0  0  0  0  0
   -8.4227   -2.6010  -23.9662 C   0  0  0  0  0  0  0  0  0  0  0  0
   -8.3076   -4.0742  -24.2238 C   0  0  0  0  0  0  0  0  0  0  0  0
   -9.0983   -4.7060  -25.3309 C   0  0  0  0  0  0  0  0  0  0  0  0
  -10.0041   -3.8647  -26.1804 Cl  0  0  0  0  0  0  0  0  0  0  0  0
   -8.9831   -6.1793  -25.5885 C   0  0  0  0  0  0  0  0  0  0  0  0
   -8.0773   -7.0207  -24.7391 C   0  0  0  0  0  0  0  0  0  0  0  0
   -7.2866   -6.3888  -23.6320 C   0  0  0  0  0  0  0  0  0  0  0  0
   -7.4018   -4.9156  -23.3744 C   0  0  0  0  0  0  0  0  0  0  0  0
   -6.6111   -4.2838  -22.2673 C   0  0  0  0  0  0  0  0  0  0  0  0
   -6.0507   -0.7055  -20.6449 C   0  0  0  0  0  0  0  0  0  0  0  0
   -4.8137    0.1359  -20.5372 C   0  0  0  0  0  0  0  0  0  0  0  0
   -4.4481    0.7676  -19.2267 C   0  0  0  0  0  0  0  0  0  0  0  0
   -3.2110    1.6091  -19.1190 N   0  0  0  0  0  0  0  0  0  0  0  0
   -2.3396    1.8189  -20.3216 C   0  0  0  0  0  0  0  0  0  0  0  0
   -2.7051    1.1872  -21.6322 C   0  0  0  0  0  0  0  0  0  0  0  0
   -1.8337    1.3970  -22.8349 C   0  0  0  0  0  0  0  0  0  0  0  0
   -2.1993    0.7654  -24.1453 C   0  0  0  0  0  0  0  0  0  0  0  0
   -3.4363   -0.0761  -24.2530 C   0  0  0  0  0  0  0  0  0  0  0  0
   -4.3078   -0.2859  -23.0504 C   0  0  0  0  0  0  0  0  0  0  0  0
   -3.9422    0.3457  -21.7399 C   0  0  0  0  0  0  0  0  0  0  0  0
  1  2  2  0  0  0
  2 14  1  0  0  0
 14 15  1  0  0  0
 15 16  2  0  0  0
 16 17  1  0  0  0
 17 18  2  0  0  0
 18 19  1  0  0  0
 19 20  2  0  0  0
 20 21  1  0  0  0
 21 22  2  0  0  0
 22 23  1  0  0  0
 23 24  2  0  0  0
  2  3  1  0  0  0
  3  4  1  0  0  0
  4  5  1  0  0  0
  5  6  1  0  0  0
  6  7  2  0  0  0
  7  8  1  0  0  0
  7  9  1  0  0  0
  9 10  2  0  0  0
 10 11  1  0  0  0
 11 12  2  0  0  0
 12 13  1  0  0  0
 24 15  1  0  0  0
 13  3  1  0  0  0
 24 19  1  0  0  0
 12  6  1  0  0  0
M  END
> <minimizedAffinity>
-6.80854

> <CNNscore>
0.4230877161

> <CNNaffinity>
5.0620255470

> <CNN_VS>
2.1416807175

> <CNNaffinity_variance>
0.2281822711

$$$$



 24 27  0  0  0  0  0  0  0  0999 V2000
   -5.3959   -3.6279  -20.9880 O   0  0  0  0  0  0  0  0  0  0  0  0
   -6.4731   -2.9159  -21.7514 C   0  0  0  0  0  0  0  0  0  0  0  0
   -6.9658   -3.4764  -23.0526 N   0  0  0  0  0  0  0  0  0  0  0  0
   -8.0430   -2.7645  -23.8159 C   0  0  0  0  0  0  0  0  0  0  0  0
   -8.5356   -3.3249  -25.1172 C   0  0  0  0  0  0  0  0  0  0  0  0
   -7.9511   -4.5973  -25.6550 C   0  0  0  0  0  0  0  0  0  0  0  0
   -8.4438   -5.1578  -26.9562 C   0  0  0  0  0  0  0  0  0  0  0  0
   -9.5210   -4.4458  -27.7196 Cl  0  0  0  0  0  0  0  0  0  0  0  0
   -7.8592   -6.4302  -27.4941 C   0  0  0  0  0  0  0  0  0  0  0  0
   -6.7820   -7.1421  -26.7307 C   0  0  0  0  0  0  0  0  0  0  0  0
   -6.2893   -6.5817  -25.4295 C   0  0  0  0  0  0  0  0  0  0  0  0
   -6.8738   -5.3093  -24.8917 C   0  0  0  0  0  0  0  0  0  0  0  0
   -6.3812   -4.7488  -23.5904 C   0  0  0  0  0  0  0  0  0  0  0  0
   -7.0577   -1.6436  -21.2135 C   0  0  0  0  0  0  0  0  0  0  0  0
   -6.3234   -0.8670  -20.1610 C   0  0  0  0  0  0  0  0  0  0  0  0
   -6.8108   -0.8799  -18.7425 C   0  0  0  0  0  0  0  0  0  0  0  0
   -6.0766   -0.1033  -17.6900 N   0  0  0  0  0  0  0  0  0  0  0  0
   -4.8549    0.6862  -18.0560 C   0  0  0  0  0  0  0  0  0  0  0  0
   -4.3674    0.6992  -19.4746 C   0  0  0  0  0  0  0  0  0  0  0  0
   -3.1457    1.4887  -19.8406 C   0  0  0  0  0  0  0  0  0  0  0  0
   -2.6582    1.5017  -21.2591 C   0  0  0  0  0  0  0  0  0  0  0  0
   -3.3925    0.7251  -22.3116 C   0  0  0  0  0  0  0  0  0  0  0  0
   -4.6142   -0.0645  -21.9456 C   0  0  0  0  0  0  0  0  0  0  0  0
   -5.1016   -0.0774  -20.5271 C   0  0  0  0  0  0  0  0  0  0  0  0
  1  2  2  0  0  0
  2 14  1  0  0  0
 14 15  1  0  0  0
 15 16  2  0  0  0
 16 17  1  0  0  0
 17 18  2  0  0  0
 18 19  1  0  0  0
 19 20  2  0  0  0
 20 21  1  0  0  0
 21 22  2  0  0  0
 22 23  1  0  0  0
 23 24  2  0  0  0
  2  3  1  0  0  0
  3  4  1  0  0  0
  4  5  1  0  0  0
  5  6  1  0  0  0
  6  7  2  0  0  0
  7  8  1  0  0  0
  7  9  1  0  0  0
  9 10  2  0  0  0
 10 11  1  0  0  0
 11 12  2  0  0  0
 12 13  1  0  0  0
 24 15  1  0  0  0
 13  3  1  0  0  0
 24 19  1  0  0  0
 12  6  1  0  0  0
M  END
> <minimizedAffinity>
-7.12329

> <CNNscore>
0.4205453992

> <CNNaffinity>
5.1354341507

> <CNN_VS>
2.1596832275

> <CNNaffinity_variance>
0.0724808052

$$$$



 24 27  0  0  0  0  0  0  0  0999 V2000
   -8.4591   -1.1466  -25.0296 O   0  0  0  0  0  0  0  0  0  0  0  0
   -8.6919   -1.5288  -23.5979 C   0  0  0  0  0  0  0  0  0  0  0  0
   -7.7576   -1.0419  -22.5302 N   0  0  0  0  0  0  0  0  0  0  0  0
   -7.9904   -1.4241  -21.0985 C   0  0  0  0  0  0  0  0  0  0  0  0
   -7.0561   -0.9371  -20.0308 C   0  0  0  0  0  0  0  0  0  0  0  0
   -5.8890   -0.0681  -20.3948 C   0  0  0  0  0  0  0  0  0  0  0  0
   -4.9546    0.4188  -19.3271 C   0  0  0  0  0  0  0  0  0  0  0  0
   -5.1874    0.0367  -17.8954 Cl  0  0  0  0  0  0  0  0  0  0  0  0
   -3.7875    1.2879  -19.6911 C   0  0  0  0  0  0  0  0  0  0  0  0
   -3.5547    1.6701  -21.1228 C   0  0  0  0  0  0  0  0  0  0  0  0
   -4.4890    1.1832  -22.1905 C   0  0  0  0  0  0  0  0  0  0  0  0
   -5.6561    0.3141  -21.8265 C   0  0  0  0  0  0  0  0  0  0  0  0
   -6.5904   -0.1728  -22.8942 C   0  0  0  0  0  0  0  0  0  0  0  0
   -9.8590   -2.3979  -23.2339 C   0  0  0  0  0  0  0  0  0  0  0  0
  -11.2310   -1.8023  -23.1201 C   0  0  0  0  0  0  0  0  0  0  0  0
  -12.3944   -2.6670  -22.7347 C   0  0  0  0  0  0  0  0  0  0  0  0
  -13.7664   -2.0713  -22.6209 N   0  0  0  0  0  0  0  0  0  0  0  0
  -13.9749   -0.6110  -22.8926 C   0  0  0  0  0  0  0  0  0  0  0  0
  -12.8115    0.2538  -23.2781 C   0  0  0  0  0  0  0  0  0  0  0  0
  -13.0200    1.7141  -23.5498 C   0  0  0  0  0  0  0  0  0  0  0  0
  -11.8565    2.5789  -23.9353 C   0  0  0  0  0  0  0  0  0  0  0  0
  -10.4846    1.9832  -24.0490 C   0  0  0  0  0  0  0  0  0  0  0  0
  -10.2761    0.5229  -23.7773 C   0  0  0  0  0  0  0  0  0  0  0  0
  -11.4395   -0.3418  -23.3919 C   0  0  0  0  0  0  0  0  0  0  0  0
  1  2  2  0  0  0
  2 14  1  0  0  0
 14 15  1  0  0  0
 15 16  2  0  0  0
 16 17  1  0  0  0
 17 18  2  0  0  0
 18 19  1  0  0  0
 19 20  2  0  0  0
 20 21  1  0  0  0
 21 22  2  0  0  0
 22 23  1  0  0  0
 23 24  2  0  0  0
  2  3  1  0  0  0
  3  4  1  0  0  0
  4  5  1  0  0  0
  5  6  1  0  0  0
  6  7  2  0  0  0
  7  8  1  0  0  0
  7  9  1  0  0  0
  9 10  2  0  0  0
 10 11  1  0  0  0
 11 12  2  0  0  0
 12 13  1  0  0  0
 24 15  1  0  0  0
 13  3  1  0  0  0
 24 19  1  0  0  0
 12  6  1  0  0  0
M  END
> <minimizedAffinity>
-7.56260

> <CNNscore>
0.4099662900

> <CNNaffinity>
5.1235322952

> <CNN_VS>
2.1004755497

> <CNNaffinity_variance>
0.5209768414

$$$$



 24 27  0  0  0  0  0  0  0  0999 V2000
   -6.4608    2.4700  -21.9979 O   0  0  0  0  0  0  0  0  0  0  0  0
   -6.6542    0.9896  -21.8527 C   0  0  0  0  0  0  0  0  0  0  0  0
   -7.9872    0.3738  -22.1591 N   0  0  0  0  0  0  0  0  0  0  0  0
   -8.1807   -1.1066  -22.0139 C   0  0  0  0  0  0  0  0  0  0  0  0
   -9.5136   -1.7224  -22.3204 C   0  0  0  0  0  0  0  0  0  0  0  0
  -10.6532   -0.8579  -22.7720 C   0  0  0  0  0  0  0  0  0  0  0  0
  -11.9862   -1.4737  -23.0785 C   0  0  0  0  0  0  0  0  0  0  0  0
  -12.1796   -2.9540  -22.9333 Cl  0  0  0  0  0  0  0  0  0  0  0  0
  -13.1257   -0.6091  -23.5302 C   0  0  0  0  0  0  0  0  0  0  0  0
  -12.9322    0.8712  -23.6754 C   0  0  0  0  0  0  0  0  0  0  0  0
  -11.5993    1.4871  -23.3689 C   0  0  0  0  0  0  0  0  0  0  0  0
  -10.4597    0.6225  -22.9173 C   0  0  0  0  0  0  0  0  0  0  0  0
   -9.1268    1.2384  -22.6108 C   0  0  0  0  0  0  0  0  0  0  0  0
   -5.5147    0.1251  -21.4010 C   0  0  0  0  0  0  0  0  0  0  0  0
   -4.1998    0.7477  -21.0358 C   0  0  0  0  0  0  0  0  0  0  0  0
   -3.9858    1.2925  -19.6547 C   0  0  0  0  0  0  0  0  0  0  0  0
   -2.6709    1.9151  -19.2895 N   0  0  0  0  0  0  0  0  0  0  0  0
   -1.5700    1.9930  -20.3053 C   0  0  0  0  0  0  0  0  0  0  0  0
   -1.7840    1.4483  -21.6865 C   0  0  0  0  0  0  0  0  0  0  0  0
   -0.6832    1.5261  -22.7023 C   0  0  0  0  0  0  0  0  0  0  0  0
   -0.8972    0.9814  -24.0834 C   0  0  0  0  0  0  0  0  0  0  0  0
   -2.2121    0.3587  -24.4486 C   0  0  0  0  0  0  0  0  0  0  0  0
   -3.3129    0.2808  -23.4328 C   0  0  0  0  0  0  0  0  0  0  0  0
   -3.0989    0.8256  -22.0517 C   0  0  0  0  0  0  0  0  0  0  0  0
  1  2  2  0  0  0
  2 14  1  0  0  0
 14 15  1  0  0  0
 15 16  2  0  0  0
 16 17  1  0  0  0
 17 18  2  0  0  0
 18 19  1  0  0  0
 19 20  2  0  0  0
 20 21  1  0  0  0
 21 22  2  0  0  0
 22 23  1  0  0  0
 23 24  2  0  0  0
  2  3  1  0  0  0
  3  4  1  0  0  0
  4  5  1  0  0  0
  5  6  1  0  0  0
  6  7  2  0  0  0
  7  8  1  0  0  0
  7  9  1  0  0  0
  9 10  2  0  0  0
 10 11  1  0  0  0
 11 12  2  0  0  0
 12 13  1  0  0  0
 24 15  1  0  0  0
 13  3  1  0  0  0
 24 19  1  0  0  0
 12  6  1  0  0  0
M  END
> <minimizedAffinity>
-6.84317

> <CNNscore>
0.3270413578

> <CNNaffinity>
4.8095026016

> <CNN_VS>
1.5729062557

> <CNNaffinity_variance>
0.1154159307

$$$$



 24 27  0  0  0  0  0  0  0  0999 V2000
   -7.0852   -1.0485  -25.5007 O   0  0  0  0  0  0  0  0  0  0  0  0
   -7.5034   -1.5194  -24.1392 C   0  0  0  0  0  0  0  0  0  0  0  0
   -6.7874   -1.0190  -22.9198 N   0  0  0  0  0  0  0  0  0  0  0  0
   -7.2057   -1.4898  -21.5585 C   0  0  0  0  0  0  0  0  0  0  0  0
   -6.4897   -0.9893  -20.3391 C   0  0  0  0  0  0  0  0  0  0  0  0
   -5.3554   -0.0181  -20.4810 C   0  0  0  0  0  0  0  0  0  0  0  0
   -4.6394    0.4823  -19.2617 C   0  0  0  0  0  0  0  0  0  0  0  0
   -5.0576    0.0115  -17.9003 Cl  0  0  0  0  0  0  0  0  0  0  0  0
   -3.5051    1.4536  -19.4037 C   0  0  0  0  0  0  0  0  0  0  0  0
   -3.0869    1.9244  -20.7651 C   0  0  0  0  0  0  0  0  0  0  0  0
   -3.8029    1.4239  -21.9845 C   0  0  0  0  0  0  0  0  0  0  0  0
   -4.9371    0.4527  -21.8425 C   0  0  0  0  0  0  0  0  0  0  0  0
   -5.6531   -0.0477  -23.0619 C   0  0  0  0  0  0  0  0  0  0  0  0
   -8.6377   -2.4906  -23.9972 C   0  0  0  0  0  0  0  0  0  0  0  0
   -8.3758   -3.9657  -24.0715 C   0  0  0  0  0  0  0  0  0  0  0  0
   -7.7549   -4.6767  -22.9058 C   0  0  0  0  0  0  0  0  0  0  0  0
   -7.4930   -6.1518  -22.9800 N   0  0  0  0  0  0  0  0  0  0  0  0
   -7.8519   -6.9159  -24.2199 C   0  0  0  0  0  0  0  0  0  0  0  0
   -8.4728   -6.2048  -25.3857 C   0  0  0  0  0  0  0  0  0  0  0  0
   -8.8317   -6.9688  -26.6255 C   0  0  0  0  0  0  0  0  0  0  0  0
   -9.4526   -6.2578  -27.7912 C   0  0  0  0  0  0  0  0  0  0  0  0
   -9.7145   -4.7827  -27.7170 C   0  0  0  0  0  0  0  0  0  0  0  0
   -9.3556   -4.0186  -26.4771 C   0  0  0  0  0  0  0  0  0  0  0  0
   -8.7347   -4.7297  -25.3114 C   0  0  0  0  0  0  0  0  0  0  0  0
  1  2  2  0  0  0
  2 14  1  0  0  0
 14 15  1  0  0  0
 15 16  2  0  0  0
 16 17  1  0  0  0
 17 18  2  0  0  0
 18 19  1  0  0  0
 19 20  2  0  0  0
 20 21  1  0  0  0
 21 22  2  0  0  0
 22 23  1  0  0  0
 23 24  2  0  0  0
  2  3  1  0  0  0
  3  4  1  0  0  0
  4  5  1  0  0  0
  5  6  1  0  0  0
  6  7  2  0  0  0
  7  8  1  0  0  0
  7  9  1  0  0  0
  9 10  2  0  0  0
 10 11  1  0  0  0
 11 12  2  0  0  0
 12 13  1  0  0  0
 24 15  1  0  0  0
 13  3  1  0  0  0
 24 19  1  0  0  0
 12  6  1  0  0  0
M  END
> <minimizedAffinity>
-6.76373

> <CNNscore>
0.2904904783

> <CNNaffinity>
4.9743804932

> <CNN_VS>
1.4450101852

> <CNNaffinity_variance>
0.2225944102

$$$$
