


 24 27  0  0  0  0  0  0  0  0999 V2000
    8.6705    1.2023   21.3505 O   0  0  0  0  0  0  0  0  0  0  0  0
    8.1058   -0.0622   21.9268 C   0  0  0  0  0  0  0  0  0  0  0  0
    8.9232   -0.8824   22.8802 N   0  0  0  0  0  0  0  0  0  0  0  0
    8.3586   -2.1470   23.4565 C   0  0  0  0  0  0  0  0  0  0  0  0
    9.1761   -2.9672   24.4099 C   0  0  0  0  0  0  0  0  0  0  0  0
   10.5582   -2.5229   24.7870 C   0  0  0  0  0  0  0  0  0  0  0  0
   11.3757   -3.3431   25.7404 C   0  0  0  0  0  0  0  0  0  0  0  0
   10.8111   -4.6076   26.3167 Cl  0  0  0  0  0  0  0  0  0  0  0  0
   12.7579   -2.8988   26.1175 C   0  0  0  0  0  0  0  0  0  0  0  0
   13.3226   -1.6342   25.5412 C   0  0  0  0  0  0  0  0  0  0  0  0
   12.5051   -0.8140   24.5878 C   0  0  0  0  0  0  0  0  0  0  0  0
   11.1230   -1.2583   24.2107 C   0  0  0  0  0  0  0  0  0  0  0  0
   10.3055   -0.4381   23.2573 C   0  0  0  0  0  0  0  0  0  0  0  0
    6.7236   -0.5065   21.5497 C   0  0  0  0  0  0  0  0  0  0  0  0
    6.0776    0.0271   20.3056 C   0  0  0  0  0  0  0  0  0  0  0  0
    6.7147   -0.2104   18.9686 C   0  0  0  0  0  0  0  0  0  0  0  0
    6.0687    0.3233   17.7245 N   0  0  0  0  0  0  0  0  0  0  0  0
    4.7855    1.0944   17.8173 C   0  0  0  0  0  0  0  0  0  0  0  0
    4.1482    1.3320   19.1544 C   0  0  0  0  0  0  0  0  0  0  0  0
    2.8650    2.1031   19.2472 C   0  0  0  0  0  0  0  0  0  0  0  0
    2.2279    2.3406   20.5842 C   0  0  0  0  0  0  0  0  0  0  0  0
    2.8739    1.8070   21.8284 C   0  0  0  0  0  0  0  0  0  0  0  0
    4.1571    1.0358   21.7355 C   0  0  0  0  0  0  0  0  0  0  0  0
    4.7943    0.7983   20.3985 C   0  0  0  0  0  0  0  0  0  0  0  0
  1  2  2  0  0  0
  2 14  1  0  0  0
 14 15  1  0  0  0
 15 16  2  0  0  0
 16 17  1  0  0  0
 17 18  2  0  0  0
 18 19  1  0  0  0
 19 20  2  0  0  0
 20 21  1  0  0  0
 21 22  2  0  0  0
 22 23  1  0  0  0
 23 24  2  0  0  0
  2  3  1  0  0  0
  3  4  1  0  0  0
  4  5  1  0  0  0
  5  6  1  0  0  0
  6  7  2  0  0  0
  7  8  1  0  0  0
  7  9  1  0  0  0
  9 10  2  0  0  0
 10 11  1  0  0  0
 11 12  2  0  0  0
 12 13  1  0  0  0
 24 15  1  0  0  0
 13  3  1  0  0  0
 24 19  1  0  0  0
 12  6  1  0  0  0
M  END
> <minimizedAffinity>
-8.75685

> <CNNscore>
0.8596402407

> <CNNaffinity>
5.8923354149

> <CNN_VS>
5.0652885437

> <CNNaffinity_variance>
0.0738955215

$$$$



 24 27  0  0  0  0  0  0  0  0999 V2000
    6.4708   -1.9446   21.9190 O   0  0  0  0  0  0  0  0  0  0  0  0
    7.7273   -1.1255   21.8972 C   0  0  0  0  0  0  0  0  0  0  0  0
    8.8624   -1.4688   22.8158 N   0  0  0  0  0  0  0  0  0  0  0  0
   10.1188   -0.6498   22.7942 C   0  0  0  0  0  0  0  0  0  0  0  0
   11.2538   -0.9930   23.7128 C   0  0  0  0  0  0  0  0  0  0  0  0
   11.1324   -2.1554   24.6531 C   0  0  0  0  0  0  0  0  0  0  0  0
   12.2675   -2.4987   25.5717 C   0  0  0  0  0  0  0  0  0  0  0  0
   13.5239   -1.6796   25.5500 Cl  0  0  0  0  0  0  0  0  0  0  0  0
   12.1460   -3.6611   26.5120 C   0  0  0  0  0  0  0  0  0  0  0  0
   10.8896   -4.4801   26.5337 C   0  0  0  0  0  0  0  0  0  0  0  0
    9.7545   -4.1368   25.6151 C   0  0  0  0  0  0  0  0  0  0  0  0
    9.8759   -2.9745   24.6748 C   0  0  0  0  0  0  0  0  0  0  0  0
    8.7409   -2.6312   23.7562 C   0  0  0  0  0  0  0  0  0  0  0  0
    7.8487    0.0368   20.9569 C   0  0  0  0  0  0  0  0  0  0  0  0
    6.7584    0.3165   19.9654 C   0  0  0  0  0  0  0  0  0  0  0  0
    6.7122   -0.4367   18.6691 C   0  0  0  0  0  0  0  0  0  0  0  0
    5.6220   -0.1571   17.6776 N   0  0  0  0  0  0  0  0  0  0  0  0
    4.5779    0.8758   17.9824 C   0  0  0  0  0  0  0  0  0  0  0  0
    4.6240    1.6291   19.2788 C   0  0  0  0  0  0  0  0  0  0  0  0
    3.5799    2.6620   19.5836 C   0  0  0  0  0  0  0  0  0  0  0  0
    3.6261    3.4152   20.8799 C   0  0  0  0  0  0  0  0  0  0  0  0
    4.7164    3.1356   21.8714 C   0  0  0  0  0  0  0  0  0  0  0  0
    5.7605    2.1027   21.5666 C   0  0  0  0  0  0  0  0  0  0  0  0
    5.7143    1.3494   20.2703 C   0  0  0  0  0  0  0  0  0  0  0  0
  1  2  2  0  0  0
  2 14  1  0  0  0
 14 15  1  0  0  0
 15 16  2  0  0  0
 16 17  1  0  0  0
 17 18  2  0  0  0
 18 19  1  0  0  0
 19 20  2  0  0  0
 20 21  1  0  0  0
 21 22  2  0  0  0
 22 23  1  0  0  0
 23 24  2  0  0  0
  2  3  1  0  0  0
  3  4  1  0  0  0
  4  5  1  0  0  0
  5  6  1  0  0  0
  6  7  2  0  0  0
  7  8  1  0  0  0
  7  9  1  0  0  0
  9 10  2  0  0  0
 10 11  1  0  0  0
 11 12  2  0  0  0
 12 13  1  0  0  0
 24 15  1  0  0  0
 13  3  1  0  0  0
 24 19  1  0  0  0
 12  6  1  0  0  0
M  END
> <minimizedAffinity>
-8.70337

> <CNNscore>
0.8349540830

> <CNNaffinity>
5.8992490768

> <CNN_VS>
4.9256019592

> <CNNaffinity_variance>
0.1198714003

$$$$



 24 27  0  0  0  0  0  0  0  0999 V2000
    8.6323    0.0371   21.1872 O   0  0  0  0  0  0  0  0  0  0  0  0
    8.0801   -1.0513   22.0593 C   0  0  0  0  0  0  0  0  0  0  0  0
    8.9476   -1.6878   23.1044 N   0  0  0  0  0  0  0  0  0  0  0  0
    8.3954   -2.7761   23.9764 C   0  0  0  0  0  0  0  0  0  0  0  0
    9.2630   -3.4126   25.0215 C   0  0  0  0  0  0  0  0  0  0  0  0
   10.6828   -2.9608   25.1945 C   0  0  0  0  0  0  0  0  0  0  0  0
   11.5504   -3.5973   26.2396 C   0  0  0  0  0  0  0  0  0  0  0  0
   10.9981   -4.6856   27.1116 Cl  0  0  0  0  0  0  0  0  0  0  0  0
   12.9702   -3.1454   26.4126 C   0  0  0  0  0  0  0  0  0  0  0  0
   13.5224   -2.0570   25.5405 C   0  0  0  0  0  0  0  0  0  0  0  0
   12.6549   -1.4205   24.4955 C   0  0  0  0  0  0  0  0  0  0  0  0
   11.2351   -1.8724   24.3225 C   0  0  0  0  0  0  0  0  0  0  0  0
   10.3675   -1.2359   23.2774 C   0  0  0  0  0  0  0  0  0  0  0  0
    6.6603   -1.5031   21.8863 C   0  0  0  0  0  0  0  0  0  0  0  0
    5.5457   -0.4995   21.9095 C   0  0  0  0  0  0  0  0  0  0  0  0
    4.8758   -0.1525   23.2060 C   0  0  0  0  0  0  0  0  0  0  0  0
    3.7612    0.8511   23.2292 N   0  0  0  0  0  0  0  0  0  0  0  0
    3.3165    1.5076   21.9560 C   0  0  0  0  0  0  0  0  0  0  0  0
    3.9864    1.1606   20.6594 C   0  0  0  0  0  0  0  0  0  0  0  0
    3.5417    1.8172   19.3862 C   0  0  0  0  0  0  0  0  0  0  0  0
    4.2116    1.4702   18.0898 C   0  0  0  0  0  0  0  0  0  0  0  0
    5.3261    0.4666   18.0666 C   0  0  0  0  0  0  0  0  0  0  0  0
    5.7709   -0.1900   19.3398 C   0  0  0  0  0  0  0  0  0  0  0  0
    5.1010    0.1570   20.6362 C   0  0  0  0  0  0  0  0  0  0  0  0
  1  2  2  0  0  0
  2 14  1  0  0  0
 14 15  1  0  0  0
 15 16  2  0  0  0
 16 17  1  0  0  0
 17 18  2  0  0  0
 18 19  1  0  0  0
 19 20  2  0  0  0
 20 21  1  0  0  0
 21 22  2  0  0  0
 22 23  1  0  0  0
 23 24  2  0  0  0
  2  3  1  0  0  0
  3  4  1  0  0  0
  4  5  1  0  0  0
  5  6  1  0  0  0
  6  7  2  0  0  0
  7  8  1  0  0  0
  7  9  1  0  0  0
  9 10  2  0  0  0
 10 11  1  0  0  0
 11 12  2  0  0  0
 12 13  1  0  0  0
 24 15  1  0  0  0
 13  3  1  0  0  0
 24 19  1  0  0  0
 12  6  1  0  0  0
M  END
> <minimizedAffinity>
-8.35589

> <CNNscore>
0.6056397557

> <CNNaffinity>
5.5260157585

> <CNN_VS>
3.3467748165

> <CNNaffinity_variance>
0.1829262227

$$$$



 24 27  0  0  0  0  0  0  0  0999 V2000
    6.3065   -3.1806   22.5511 O   0  0  0  0  0  0  0  0  0  0  0  0
    6.3999   -1.6962   22.3563 C   0  0  0  0  0  0  0  0  0  0  0  0
    7.7217   -1.0023   22.5023 N   0  0  0  0  0  0  0  0  0  0  0  0
    7.8151    0.4820   22.3075 C   0  0  0  0  0  0  0  0  0  0  0  0
    9.1369    1.1759   22.4535 C   0  0  0  0  0  0  0  0  0  0  0  0
   10.3653    0.3855   22.7944 C   0  0  0  0  0  0  0  0  0  0  0  0
   11.6871    1.0794   22.9404 C   0  0  0  0  0  0  0  0  0  0  0  0
   11.7805    2.5638   22.7456 Cl  0  0  0  0  0  0  0  0  0  0  0  0
   12.9156    0.2889   23.2812 C   0  0  0  0  0  0  0  0  0  0  0  0
   12.8222   -1.1954   23.4761 C   0  0  0  0  0  0  0  0  0  0  0  0
   11.5004   -1.8893   23.3300 C   0  0  0  0  0  0  0  0  0  0  0  0
   10.2719   -1.0989   22.9892 C   0  0  0  0  0  0  0  0  0  0  0  0
    8.9501   -1.7928   22.8432 C   0  0  0  0  0  0  0  0  0  0  0  0
    5.1715   -0.9058   22.0154 C   0  0  0  0  0  0  0  0  0  0  0  0
    5.0109   -0.3243   20.6421 C   0  0  0  0  0  0  0  0  0  0  0  0
    5.6911   -0.9684   19.4706 C   0  0  0  0  0  0  0  0  0  0  0  0
    5.5305   -0.3868   18.0973 N   0  0  0  0  0  0  0  0  0  0  0  0
    4.6898    0.8389   17.8955 C   0  0  0  0  0  0  0  0  0  0  0  0
    4.0095    1.4831   19.0670 C   0  0  0  0  0  0  0  0  0  0  0  0
    3.1688    2.7087   18.8652 C   0  0  0  0  0  0  0  0  0  0  0  0
    2.4886    3.3528   20.0366 C   0  0  0  0  0  0  0  0  0  0  0  0
    2.6491    2.7713   21.4100 C   0  0  0  0  0  0  0  0  0  0  0  0
    3.4899    1.5456   21.6118 C   0  0  0  0  0  0  0  0  0  0  0  0
    4.1701    0.9015   20.4403 C   0  0  0  0  0  0  0  0  0  0  0  0
  1  2  2  0  0  0
  2 14  1  0  0  0
 14 15  1  0  0  0
 15 16  2  0  0  0
 16 17  1  0  0  0
 17 18  2  0  0  0
 18 19  1  0  0  0
 19 20  2  0  0  0
 20 21  1  0  0  0
 21 22  2  0  0  0
 22 23  1  0  0  0
 23 24  2  0  0  0
  2  3  1  0  0  0
  3  4  1  0  0  0
  4  5  1  0  0  0
  5  6  1  0  0  0
  6  7  2  0  0  0
  7  8  1  0  0  0
  7  9  1  0  0  0
  9 10  2  0  0  0
 10 11  1  0  0  0
 11 12  2  0  0  0
 12 13  1  0  0  0
 24 15  1  0  0  0
 13  3  1  0  0  0
 24 19  1  0  0  0
 12  6  1  0  0  0
M  END
> <minimizedAffinity>
-7.58701

> <CNNscore>
0.5696511269

> <CNNaffinity>
5.6615414619

> <CNN_VS>
3.2251033783

> <CNNaffinity_variance>
0.2884722352

$$$$



 24 27  0  0  0  0  0  0  0  0999 V2000
    5.9388   -3.0648   23.4110 O   0  0  0  0  0  0  0  0  0  0  0  0
    6.6138   -1.9676   22.6424 C   0  0  0  0  0  0  0  0  0  0  0  0
    8.0596   -1.6564   22.8927 N   0  0  0  0  0  0  0  0  0  0  0  0
    8.7346   -0.5592   22.1243 C   0  0  0  0  0  0  0  0  0  0  0  0
   10.1804   -0.2480   22.3746 C   0  0  0  0  0  0  0  0  0  0  0  0
   10.9513   -1.0340   23.3934 C   0  0  0  0  0  0  0  0  0  0  0  0
   12.3972   -0.7228   23.6437 C   0  0  0  0  0  0  0  0  0  0  0  0
   13.0721    0.3744   22.8752 Cl  0  0  0  0  0  0  0  0  0  0  0  0
   13.1681   -1.5088   24.6625 C   0  0  0  0  0  0  0  0  0  0  0  0
   12.4931   -2.6060   25.4310 C   0  0  0  0  0  0  0  0  0  0  0  0
   11.0472   -2.9172   25.1806 C   0  0  0  0  0  0  0  0  0  0  0  0
   10.2764   -2.1312   24.1619 C   0  0  0  0  0  0  0  0  0  0  0  0
    8.8305   -2.4424   23.9116 C   0  0  0  0  0  0  0  0  0  0  0  0
    5.8429   -1.1816   21.6237 C   0  0  0  0  0  0  0  0  0  0  0  0
    4.8800   -0.1203   22.0668 C   0  0  0  0  0  0  0  0  0  0  0  0
    4.5510    0.0336   23.5222 C   0  0  0  0  0  0  0  0  0  0  0  0
    3.5881    1.0949   23.9653 N   0  0  0  0  0  0  0  0  0  0  0  0
    2.9541    2.0024   22.9531 C   0  0  0  0  0  0  0  0  0  0  0  0
    3.2831    1.8486   21.4977 C   0  0  0  0  0  0  0  0  0  0  0  0
    2.6492    2.7560   20.4855 C   0  0  0  0  0  0  0  0  0  0  0  0
    2.9782    2.6022   19.0302 C   0  0  0  0  0  0  0  0  0  0  0  0
    3.9411    1.5409   18.5870 C   0  0  0  0  0  0  0  0  0  0  0  0
    4.5750    0.6334   19.5992 C   0  0  0  0  0  0  0  0  0  0  0  0
    4.2460    0.7872   21.0546 C   0  0  0  0  0  0  0  0  0  0  0  0
  1  2  2  0  0  0
  2 14  1  0  0  0
 14 15  1  0  0  0
 15 16  2  0  0  0
 16 17  1  0  0  0
 17 18  2  0  0  0
 18 19  1  0  0  0
 19 20  2  0  0  0
 20 21  1  0  0  0
 21 22  2  0  0  0
 22 23  1  0  0  0
 23 24  2  0  0  0
  2  3  1  0  0  0
  3  4  1  0  0  0
  4  5  1  0  0  0
  5  6  1  0  0  0
  6  7  2  0  0  0
  7  8  1  0  0  0
  7  9  1  0  0  0
  9 10  2  0  0  0
 10 11  1  0  0  0
 11 12  2  0  0  0
 12 13  1  0  0  0
 24 15  1  0  0  0
 13  3  1  0  0  0
 24 19  1  0  0  0
 12  6  1  0  0  0
M  END
> <minimizedAffinity>
-7.20212

> <CNNscore>
0.5579927564

> <CNNaffinity>
5.6007699966

> <CNN_VS>
3.1251890659

> <CNNaffinity_variance>
0.2804862559

$$$$



 24 27  0  0  0  0  0  0  0  0999 V2000
    7.2461   -1.4303   24.6607 O   0  0  0  0  0  0  0  0  0  0  0  0
    7.6810   -1.5350   23.2289 C   0  0  0  0  0  0  0  0  0  0  0  0
    6.8821   -0.8635   22.1514 N   0  0  0  0  0  0  0  0  0  0  0  0
    7.3169   -0.9681   20.7197 C   0  0  0  0  0  0  0  0  0  0  0  0
    6.5181   -0.2966   19.6422 C   0  0  0  0  0  0  0  0  0  0  0  0
    5.2844    0.4795   19.9965 C   0  0  0  0  0  0  0  0  0  0  0  0
    4.4855    1.1510   18.9191 C   0  0  0  0  0  0  0  0  0  0  0  0
    4.9203    1.0464   17.4874 Cl  0  0  0  0  0  0  0  0  0  0  0  0
    3.2518    1.9272   19.2735 C   0  0  0  0  0  0  0  0  0  0  0  0
    2.8170    2.0319   20.7052 C   0  0  0  0  0  0  0  0  0  0  0  0
    3.6158    1.3603   21.7827 C   0  0  0  0  0  0  0  0  0  0  0  0
    4.8495    0.5842   21.4284 C   0  0  0  0  0  0  0  0  0  0  0  0
    5.6484   -0.0873   22.5058 C   0  0  0  0  0  0  0  0  0  0  0  0
    8.9147   -2.3111   22.8746 C   0  0  0  0  0  0  0  0  0  0  0  0
   10.2698   -1.7063   23.0929 C   0  0  0  0  0  0  0  0  0  0  0  0
   10.7754   -0.6433   22.1632 C   0  0  0  0  0  0  0  0  0  0  0  0
   12.1305   -0.0384   22.3816 N   0  0  0  0  0  0  0  0  0  0  0  0
   12.9802   -0.4966   23.5296 C   0  0  0  0  0  0  0  0  0  0  0  0
   12.4747   -1.5596   24.4594 C   0  0  0  0  0  0  0  0  0  0  0  0
   13.3243   -2.0178   25.6075 C   0  0  0  0  0  0  0  0  0  0  0  0
   12.8188   -3.0808   26.5372 C   0  0  0  0  0  0  0  0  0  0  0  0
   11.4637   -3.6857   26.3189 C   0  0  0  0  0  0  0  0  0  0  0  0
   10.6140   -3.2275   25.1708 C   0  0  0  0  0  0  0  0  0  0  0  0
   11.1195   -2.1645   24.2411 C   0  0  0  0  0  0  0  0  0  0  0  0
  1  2  2  0  0  0
  2 14  1  0  0  0
 14 15  1  0  0  0
 15 16  2  0  0  0
 16 17  1  0  0  0
 17 18  2  0  0  0
 18 19  1  0  0  0
 19 20  2  0  0  0
 20 21  1  0  0  0
 21 22  2  0  0  0
 22 23  1  0  0  0
 23 24  2  0  0  0
  2  3  1  0  0  0
  3  4  1  0  0  0
  4  5  1  0  0  0
  5  6  1  0  0  0
  6  7  2  0  0  0
  7  8  1  0  0  0
  7  9  1  0  0  0
  9 10  2  0  0  0
 10 11  1  0  0  0
 11 12  2  0  0  0
 12 13  1  0  0  0
 24 15  1  0  0  0
 13  3  1  0  0  0
 24 19  1  0  0  0
 12  6  1  0  0  0
M  END
> <minimizedAffinity>
-8.23042

> <CNNscore>
0.5212098360

> <CNNaffinity>
5.6218690872

> <CNN_VS>
2.9301733971

> <CNNaffinity_variance>
0.1281163245

$$$$



 24 27  0  0  0  0  0  0  0  0999 V2000
    9.4123    2.1032   21.5421 O   0  0  0  0  0  0  0  0  0  0  0  0
    8.5522    1.1548   22.3238 C   0  0  0  0  0  0  0  0  0  0  0  0
    9.1831    0.1744   23.2676 N   0  0  0  0  0  0  0  0  0  0  0  0
    8.3231   -0.7739   24.0493 C   0  0  0  0  0  0  0  0  0  0  0  0
    8.9539   -1.7543   24.9931 C   0  0  0  0  0  0  0  0  0  0  0  0
   10.4448   -1.7865   25.1553 C   0  0  0  0  0  0  0  0  0  0  0  0
   11.0756   -2.7669   26.0991 C   0  0  0  0  0  0  0  0  0  0  0  0
   10.2156   -3.7152   26.8807 Cl  0  0  0  0  0  0  0  0  0  0  0  0
   12.5665   -2.7990   26.2612 C   0  0  0  0  0  0  0  0  0  0  0  0
   13.4265   -1.8506   25.4795 C   0  0  0  0  0  0  0  0  0  0  0  0
   12.7957   -0.8702   24.5357 C   0  0  0  0  0  0  0  0  0  0  0  0
   11.3048   -0.8381   24.3736 C   0  0  0  0  0  0  0  0  0  0  0  0
   10.6740    0.1423   23.4297 C   0  0  0  0  0  0  0  0  0  0  0  0
    7.0614    1.1869   22.1616 C   0  0  0  0  0  0  0  0  0  0  0  0
    6.4469    0.9183   20.8199 C   0  0  0  0  0  0  0  0  0  0  0  0
    7.0824   -0.0709   19.8885 C   0  0  0  0  0  0  0  0  0  0  0  0
    6.4679   -0.3395   18.5467 N   0  0  0  0  0  0  0  0  0  0  0  0
    5.2180    0.3811   18.1364 C   0  0  0  0  0  0  0  0  0  0  0  0
    4.5825    1.3704   19.0679 C   0  0  0  0  0  0  0  0  0  0  0  0
    3.3326    2.0910   18.6576 C   0  0  0  0  0  0  0  0  0  0  0  0
    2.6971    3.0802   19.5890 C   0  0  0  0  0  0  0  0  0  0  0  0
    3.3116    3.3488   20.9307 C   0  0  0  0  0  0  0  0  0  0  0  0
    4.5615    2.6282   21.3410 C   0  0  0  0  0  0  0  0  0  0  0  0
    5.1969    1.6390   20.4096 C   0  0  0  0  0  0  0  0  0  0  0  0
  1  2  2  0  0  0
  2 14  1  0  0  0
 14 15  1  0  0  0
 15 16  2  0  0  0
 16 17  1  0  0  0
 17 18  2  0  0  0
 18 19  1  0  0  0
 19 20  2  0  0  0
 20 21  1  0  0  0
 21 22  2  0  0  0
 22 23  1  0  0  0
 23 24  2  0  0  0
  2  3  1  0  0  0
  3  4  1  0  0  0
  4  5  1  0  0  0
  5  6  1  0  0  0
  6  7  2  0  0  0
  7  8  1  0  0  0
  7  9  1  0  0  0
  9 10  2  0  0  0
 10 11  1  0  0  0
 11 12  2  0  0  0
 12 13  1  0  0  0
 24 15  1  0  0  0
 13  3  1  0  0  0
 24 19  1  0  0  0
 12  6  1  0  0  0
M  END
> <minimizedAffinity>
-8.48842

> <CNNscore>
0.5124660730

> <CNNaffinity>
5.5231332779

> <CNN_VS>
2.8304183483

> <CNNaffinity_variance>
0.1446591020

$$$$



 24 27  0  0  0  0  0  0  0  0999 V2000
    8.8195    0.1440   23.7301 O   0  0  0  0  0  0  0  0  0  0  0  0
   10.1579    0.5932   23.2232 C   0  0  0  0  0  0  0  0  0  0  0  0
   10.4278    2.0533   23.0104 N   0  0  0  0  0  0  0  0  0  0  0  0
   11.7661    2.5025   22.5035 C   0  0  0  0  0  0  0  0  0  0  0  0
   12.0360    3.9626   22.2907 C   0  0  0  0  0  0  0  0  0  0  0  0
   10.9675    4.9735   22.5848 C   0  0  0  0  0  0  0  0  0  0  0  0
   11.2374    6.4336   22.3721 C   0  0  0  0  0  0  0  0  0  0  0  0
   12.5758    6.8828   21.8652 Cl  0  0  0  0  0  0  0  0  0  0  0  0
   10.1689    7.4445   22.6662 C   0  0  0  0  0  0  0  0  0  0  0  0
    8.8306    6.9952   23.1731 C   0  0  0  0  0  0  0  0  0  0  0  0
    8.5607    5.5351   23.3859 C   0  0  0  0  0  0  0  0  0  0  0  0
    9.6291    4.5243   23.0918 C   0  0  0  0  0  0  0  0  0  0  0  0
    9.3592    3.0642   23.3045 C   0  0  0  0  0  0  0  0  0  0  0  0
   11.2263   -0.4177   22.9290 C   0  0  0  0  0  0  0  0  0  0  0  0
   11.7559   -1.2906   24.0279 C   0  0  0  0  0  0  0  0  0  0  0  0
   13.1181   -1.0326   24.6002 C   0  0  0  0  0  0  0  0  0  0  0  0
   13.6477   -1.9056   25.6991 N   0  0  0  0  0  0  0  0  0  0  0  0
   12.8149   -3.0366   26.2256 C   0  0  0  0  0  0  0  0  0  0  0  0
   11.4525   -3.2946   25.6533 C   0  0  0  0  0  0  0  0  0  0  0  0
   10.6197   -4.4256   26.1799 C   0  0  0  0  0  0  0  0  0  0  0  0
    9.2575   -4.6836   25.6076 C   0  0  0  0  0  0  0  0  0  0  0  0
    8.7279   -3.8106   24.5088 C   0  0  0  0  0  0  0  0  0  0  0  0
    9.5607   -2.6797   23.9822 C   0  0  0  0  0  0  0  0  0  0  0  0
   10.9230   -2.4217   24.5545 C   0  0  0  0  0  0  0  0  0  0  0  0
  1  2  2  0  0  0
  2 14  1  0  0  0
 14 15  1  0  0  0
 15 16  2  0  0  0
 16 17  1  0  0  0
 17 18  2  0  0  0
 18 19  1  0  0  0
 19 20  2  0  0  0
 20 21  1  0  0  0
 21 22  2  0  0  0
 22 23  1  0  0  0
 23 24  2  0  0  0
  2  3  1  0  0  0
  3  4  1  0  0  0
  4  5  1  0  0  0
  5  6  1  0  0  0
  6  7  2  0  0  0
  7  8  1  0  0  0
  7  9  1  0  0  0
  9 10  2  0  0  0
 10 11  1  0  0  0
 11 12  2  0  0  0
 12 13  1  0  0  0
 24 15  1  0  0  0
 13  3  1  0  0  0
 24 19  1  0  0  0
 12  6  1  0  0  0
M  END
> <minimizedAffinity>
-7.16907

> <CNNscore>
0.5064636469

> <CNNaffinity>
5.6917953491

> <CNN_VS>
2.8826873302

> <CNNaffinity_variance>
0.0688165426

$$$$



 24 27  0  0  0  0  0  0  0  0999 V2000
    7.6489   -0.1060   24.6232 O   0  0  0  0  0  0  0  0  0  0  0  0
    7.9942   -0.5152   23.2220 C   0  0  0  0  0  0  0  0  0  0  0  0
    7.1376   -0.0637   22.0763 N   0  0  0  0  0  0  0  0  0  0  0  0
    7.4828   -0.4728   20.6751 C   0  0  0  0  0  0  0  0  0  0  0  0
    6.6263   -0.0214   19.5294 C   0  0  0  0  0  0  0  0  0  0  0  0
    5.4246    0.8391   19.7850 C   0  0  0  0  0  0  0  0  0  0  0  0
    4.5680    1.2906   18.6393 C   0  0  0  0  0  0  0  0  0  0  0  0
    4.9132    0.8815   17.2381 Cl  0  0  0  0  0  0  0  0  0  0  0  0
    3.3663    2.1511   18.8949 C   0  0  0  0  0  0  0  0  0  0  0  0
    3.0211    2.5602   20.2961 C   0  0  0  0  0  0  0  0  0  0  0  0
    3.8776    2.1088   21.4418 C   0  0  0  0  0  0  0  0  0  0  0  0
    5.0793    1.2483   21.1862 C   0  0  0  0  0  0  0  0  0  0  0  0
    5.9359    0.7969   22.3319 C   0  0  0  0  0  0  0  0  0  0  0  0
    9.1959   -1.3757   22.9664 C   0  0  0  0  0  0  0  0  0  0  0  0
    9.5783   -2.4412   23.9505 C   0  0  0  0  0  0  0  0  0  0  0  0
    8.6357   -3.5728   24.2348 C   0  0  0  0  0  0  0  0  0  0  0  0
    9.0182   -4.6383   25.2189 N   0  0  0  0  0  0  0  0  0  0  0  0
   10.3433   -4.5721   25.9187 C   0  0  0  0  0  0  0  0  0  0  0  0
   11.2860   -3.4405   25.6344 C   0  0  0  0  0  0  0  0  0  0  0  0
   12.6110   -3.3744   26.3342 C   0  0  0  0  0  0  0  0  0  0  0  0
   13.5537   -2.2428   26.0499 C   0  0  0  0  0  0  0  0  0  0  0  0
   13.1712   -1.1773   25.0658 C   0  0  0  0  0  0  0  0  0  0  0  0
   11.8461   -1.2434   24.3660 C   0  0  0  0  0  0  0  0  0  0  0  0
   10.9035   -2.3750   24.6503 C   0  0  0  0  0  0  0  0  0  0  0  0
  1  2  2  0  0  0
  2 14  1  0  0  0
 14 15  1  0  0  0
 15 16  2  0  0  0
 16 17  1  0  0  0
 17 18  2  0  0  0
 18 19  1  0  0  0
 19 20  2  0  0  0
 20 21  1  0  0  0
 21 22  2  0  0  0
 22 23  1  0  0  0
 23 24  2  0  0  0
  2  3  1  0  0  0
  3  4  1  0  0  0
  4  5  1  0  0  0
  5  6  1  0  0  0
  6  7  2  0  0  0
  7  8  1  0  0  0
  7  9  1  0  0  0
  9 10  2  0  0  0
 10 11  1  0  0  0
 11 12  2  0  0  0
 12 13  1  0  0  0
 24 15  1  0  0  0
 13  3  1  0  0  0
 24 19  1  0  0  0
 12  6  1  0  0  0
M  END
> <minimizedAffinity>
-8.29212

> <CNNscore>
0.4840464890

> <CNNaffinity>
5.5253853798

> <CNN_VS>
2.6745433807

> <CNNaffinity_variance>
0.1330913752

$$$$
