


 37 42  0  0  0  0  0  0  0  0999 V2000
    7.9644   -1.4730   22.8882 C   0  0  0  0  0  0  0  0  0  0  0  0
    7.5767   -0.3546   21.9668 C   0  0  0  0  0  0  0  0  0  0  0  0
    6.4284   -0.8252   21.1243 N   0  0  0  0  0  0  0  0  0  0  0  0
    6.1064   -2.2344   21.5250 C   0  0  0  0  0  0  0  0  0  0  0  0
    5.0249   -3.0925   20.9386 O   0  0  0  0  0  0  0  0  0  0  0  0
    7.0557   -2.6347   22.6152 C   0  0  0  0  0  0  0  0  0  0  0  0
    6.0785   -3.7066   22.2332 C   0  0  0  0  0  0  0  0  0  0  0  0
    6.1130   -5.0354   22.9283 N   0  0  0  0  0  0  0  0  0  0  0  0
    7.1248   -5.2922   24.0055 C   0  0  0  0  0  0  0  0  0  0  0  0
    7.1593   -6.6210   24.7006 O   0  0  0  0  0  0  0  0  0  0  0  0
    8.1021   -4.2203   24.3876 C   0  0  0  0  0  0  0  0  0  0  0  0
    9.1138   -4.4771   25.4648 C   0  0  0  0  0  0  0  0  0  0  0  0
   10.0910   -3.4052   25.8468 C   0  0  0  0  0  0  0  0  0  0  0  0
   10.0565   -2.0765   25.1517 C   0  0  0  0  0  0  0  0  0  0  0  0
   11.0338   -1.0045   25.5338 Cl  0  0  0  0  0  0  0  0  0  0  0  0
    9.0447   -1.8196   24.0745 C   0  0  0  0  0  0  0  0  0  0  0  0
    8.0675   -2.8915   23.6925 C   0  0  0  0  0  0  0  0  0  0  0  0
    5.7254   -0.0269   20.0667 C   0  0  0  0  0  0  0  0  0  0  0  0
    6.2036   -0.0788   18.6460 C   0  0  0  0  0  0  0  0  0  0  0  0
    5.5007    0.7196   17.5884 N   0  0  0  0  0  0  0  0  0  0  0  0
    4.3195    1.5698   17.9516 C   0  0  0  0  0  0  0  0  0  0  0  0
    3.8413    1.6217   19.3724 C   0  0  0  0  0  0  0  0  0  0  0  0
    2.6601    2.4720   19.7356 C   0  0  0  0  0  0  0  0  0  0  0  0
    2.1819    2.5238   21.1564 C   0  0  0  0  0  0  0  0  0  0  0  0
    2.8849    1.7254   22.2139 C   0  0  0  0  0  0  0  0  0  0  0  0
    4.0661    0.8752   21.8507 C   0  0  0  0  0  0  0  0  0  0  0  0
    4.5442    0.8233   20.4300 C   0  0  0  0  0  0  0  0  0  0  0  0
    9.0673   -1.4360   23.9043 C   0  0  0  0  0  0  0  0  0  0  0  0
   11.0042   -1.1978   22.1892 C   0  0  0  0  0  0  0  0  0  0  0  0
   10.4123   -0.8864   23.5318 O   0  0  0  0  0  0  0  0  0  0  0  0
    5.1357   -6.1073   22.5462 C   0  0  0  0  0  0  0  0  0  0  0  0
    3.8881   -6.3075   23.3544 C   0  0  0  0  0  0  0  0  0  0  0  0
    3.5862   -5.6759   24.6811 N   0  0  0  0  0  0  0  0  0  0  0  0
    2.2348   -6.1524   25.1245 C   0  0  0  0  0  0  0  0  0  0  0  0
    1.7014   -7.0784   24.0718 C   0  0  0  0  0  0  0  0  0  0  0  0
    2.7232   -7.1742   22.9779 N   0  0  0  0  0  0  0  0  0  0  0  0
    2.6433   -7.7117   22.1569 H   0  0  0  0  0  0  0  0  0  0  0  0
 29 30  1  0  0  0
 30 28  1  0  0  0
  1 28  1  0  0  0
  1  2  1  0  0  0
  2  3  1  0  0  0
  3 18  1  0  0  0
 18 19  2  0  0  0
 19 20  1  0  0  0
 20 21  2  0  0  0
 21 22  1  0  0  0
 22 23  2  0  0  0
 23 24  1  0  0  0
 24 25  2  0  0  0
 25 26  1  0  0  0
 26 27  2  0  0  0
  3  4  1  0  0  0
  4  5  2  0  0  0
  4  6  1  0  0  0
  6  7  1  0  0  0
  7  8  1  0  0  0
  8 31  1  0  0  0
 31 32  1  0  0  0
 32 33  2  0  0  0
 33 34  1  0  0  0
 34 35  2  0  0  0
 35 36  1  0  0  0
  8  9  1  0  0  0
  9 10  2  0  0  0
  9 11  1  0  0  0
 11 12  2  0  0  0
 12 13  1  0  0  0
 13 14  2  0  0  0
 14 15  1  0  0  0
 14 16  1  0  0  0
 16 17  2  0  0  0
  6  1  1  0  0  0
 36 32  1  0  0  0
 17 11  1  0  0  0
 27 18  1  0  0  0
 17  6  1  0  0  0
 27 22  1  0  0  0
 36 37  1  0  0  0
M  END
> <minimizedAffinity>
-8.03109

> <CNNscore>
0.6422342062

> <CNNaffinity>
6.8171796799

> <CNN_VS>
4.3782258034

> <CNNaffinity_variance>
0.0075955009

$$$$



 37 42  0  0  0  0  0  0  0  0999 V2000
    7.7231   -2.0279   22.6417 C   0  0  0  0  0  0  0  0  0  0  0  0
    6.6188   -1.7723   21.6593 C   0  0  0  0  0  0  0  0  0  0  0  0
    6.8908   -0.4589   20.9876 N   0  0  0  0  0  0  0  0  0  0  0  0
    8.1632    0.0971   21.5550 C   0  0  0  0  0  0  0  0  0  0  0  0
    8.8080    1.3950   21.1680 O   0  0  0  0  0  0  0  0  0  0  0  0
    8.6776   -0.8726   22.5773 C   0  0  0  0  0  0  0  0  0  0  0  0
    9.5379    0.3437   22.4030 C   0  0  0  0  0  0  0  0  0  0  0  0
   10.7874    0.5017   23.2178 N   0  0  0  0  0  0  0  0  0  0  0  0
   11.1766   -0.5568   24.2069 C   0  0  0  0  0  0  0  0  0  0  0  0
   12.4261   -0.3988   25.0216 O   0  0  0  0  0  0  0  0  0  0  0  0
   10.3163   -1.7732   24.3812 C   0  0  0  0  0  0  0  0  0  0  0  0
   10.7055   -2.8316   25.3702 C   0  0  0  0  0  0  0  0  0  0  0  0
    9.8452   -4.0479   25.5445 C   0  0  0  0  0  0  0  0  0  0  0  0
    8.5957   -4.2058   24.7297 C   0  0  0  0  0  0  0  0  0  0  0  0
    7.7354   -5.4222   24.9040 Cl  0  0  0  0  0  0  0  0  0  0  0  0
    8.2065   -3.1474   23.7406 C   0  0  0  0  0  0  0  0  0  0  0  0
    9.0668   -1.9311   23.5664 C   0  0  0  0  0  0  0  0  0  0  0  0
    6.0399    0.1853   19.9337 C   0  0  0  0  0  0  0  0  0  0  0  0
    6.3840    0.0141   18.4839 C   0  0  0  0  0  0  0  0  0  0  0  0
    5.5330    0.6584   17.4299 N   0  0  0  0  0  0  0  0  0  0  0  0
    4.3379    1.4738   17.8259 C   0  0  0  0  0  0  0  0  0  0  0  0
    3.9938    1.6450   19.2758 C   0  0  0  0  0  0  0  0  0  0  0  0
    2.7987    2.4605   19.6718 C   0  0  0  0  0  0  0  0  0  0  0  0
    2.4546    2.6317   21.1218 C   0  0  0  0  0  0  0  0  0  0  0  0
    3.3056    1.9874   22.1756 C   0  0  0  0  0  0  0  0  0  0  0  0
    4.5007    1.1720   21.7796 C   0  0  0  0  0  0  0  0  0  0  0  0
    4.8448    1.0008   20.3298 C   0  0  0  0  0  0  0  0  0  0  0  0
    7.8505   -3.2282   23.5323 C   0  0  0  0  0  0  0  0  0  0  0  0
    5.7998   -4.4833   22.5478 C   0  0  0  0  0  0  0  0  0  0  0  0
    7.1671   -4.5116   23.1638 O   0  0  0  0  0  0  0  0  0  0  0  0
   11.6477    1.7181   23.0435 C   0  0  0  0  0  0  0  0  0  0  0  0
   11.0259    3.0831   23.0466 C   0  0  0  0  0  0  0  0  0  0  0  0
   11.7383    4.3770   22.7849 N   0  0  0  0  0  0  0  0  0  0  0  0
   10.7353    5.4875   22.8884 C   0  0  0  0  0  0  0  0  0  0  0  0
    9.4030    4.8800   23.2141 C   0  0  0  0  0  0  0  0  0  0  0  0
    9.5827    3.3940   23.3118 N   0  0  0  0  0  0  0  0  0  0  0  0
    8.8772    2.7379   23.5145 H   0  0  0  0  0  0  0  0  0  0  0  0
 29 30  1  0  0  0
 30 28  1  0  0  0
  1 28  1  0  0  0
  1  2  1  0  0  0
  2  3  1  0  0  0
  3 18  1  0  0  0
 18 19  2  0  0  0
 19 20  1  0  0  0
 20 21  2  0  0  0
 21 22  1  0  0  0
 22 23  2  0  0  0
 23 24  1  0  0  0
 24 25  2  0  0  0
 25 26  1  0  0  0
 26 27  2  0  0  0
  3  4  1  0  0  0
  4  5  2  0  0  0
  4  6  1  0  0  0
  6  7  1  0  0  0
  7  8  1  0  0  0
  8 31  1  0  0  0
 31 32  1  0  0  0
 32 33  2  0  0  0
 33 34  1  0  0  0
 34 35  2  0  0  0
 35 36  1  0  0  0
  8  9  1  0  0  0
  9 10  2  0  0  0
  9 11  1  0  0  0
 11 12  2  0  0  0
 12 13  1  0  0  0
 13 14  2  0  0  0
 14 15  1  0  0  0
 14 16  1  0  0  0
 16 17  2  0  0  0
  6  1  1  0  0  0
 36 32  1  0  0  0
 17 11  1  0  0  0
 27 18  1  0  0  0
 17  6  1  0  0  0
 27 22  1  0  0  0
 36 37  1  0  0  0
M  END
> <minimizedAffinity>
-8.95906

> <CNNscore>
0.6062092185

> <CNNaffinity>
6.9344215393

> <CNN_VS>
4.2037100792

> <CNNaffinity_variance>
0.0962316766

$$$$



 37 42  0  0  0  0  0  0  0  0999 V2000
    9.5562   -2.7147   24.3786 C   0  0  0  0  0  0  0  0  0  0  0  0
    8.8540   -3.9165   24.9375 C   0  0  0  0  0  0  0  0  0  0  0  0
    7.4053   -3.8243   24.5597 N   0  0  0  0  0  0  0  0  0  0  0  0
    7.2122   -2.5655   23.7672 C   0  0  0  0  0  0  0  0  0  0  0  0
    5.9171   -2.0781   23.1882 O   0  0  0  0  0  0  0  0  0  0  0  0
    8.5415   -1.8797   23.6552 C   0  0  0  0  0  0  0  0  0  0  0  0
    7.4208   -1.1530   22.9727 C   0  0  0  0  0  0  0  0  0  0  0  0
    7.6885    0.1406   22.2622 N   0  0  0  0  0  0  0  0  0  0  0  0
    9.0768    0.7076   22.2342 C   0  0  0  0  0  0  0  0  0  0  0  0
    9.3445    2.0013   21.5237 O   0  0  0  0  0  0  0  0  0  0  0  0
   10.1977   -0.0190   22.9167 C   0  0  0  0  0  0  0  0  0  0  0  0
   11.5861    0.5480   22.8887 C   0  0  0  0  0  0  0  0  0  0  0  0
   12.7068   -0.1787   23.5712 C   0  0  0  0  0  0  0  0  0  0  0  0
   12.4392   -1.4723   24.2818 C   0  0  0  0  0  0  0  0  0  0  0  0
   13.5600   -2.1990   24.9643 Cl  0  0  0  0  0  0  0  0  0  0  0  0
   11.0508   -2.0393   24.3098 C   0  0  0  0  0  0  0  0  0  0  0  0
    9.9300   -1.3127   23.6272 C   0  0  0  0  0  0  0  0  0  0  0  0
    6.3372   -4.8167   24.9123 C   0  0  0  0  0  0  0  0  0  0  0  0
    6.1085   -6.0145   24.0390 C   0  0  0  0  0  0  0  0  0  0  0  0
    5.0405   -7.0069   24.3917 N   0  0  0  0  0  0  0  0  0  0  0  0
    4.2011   -6.8014   25.6178 C   0  0  0  0  0  0  0  0  0  0  0  0
    4.4298   -5.6035   26.4911 C   0  0  0  0  0  0  0  0  0  0  0  0
    3.5904   -5.3980   27.7172 C   0  0  0  0  0  0  0  0  0  0  0  0
    3.8192   -4.2001   28.5905 C   0  0  0  0  0  0  0  0  0  0  0  0
    4.8873   -3.2078   28.2378 C   0  0  0  0  0  0  0  0  0  0  0  0
    5.7266   -3.4133   27.0118 C   0  0  0  0  0  0  0  0  0  0  0  0
    5.4979   -4.6111   26.1384 C   0  0  0  0  0  0  0  0  0  0  0  0
   11.0167   -2.4026   24.5184 C   0  0  0  0  0  0  0  0  0  0  0  0
   11.3490   -4.0507   26.4992 C   0  0  0  0  0  0  0  0  0  0  0  0
   11.7559   -2.8119   25.7578 O   0  0  0  0  0  0  0  0  0  0  0  0
    6.5676    0.8673   21.5797 C   0  0  0  0  0  0  0  0  0  0  0  0
    6.1785    2.2426   22.0346 C   0  0  0  0  0  0  0  0  0  0  0  0
    5.0583    2.5763   22.9746 N   0  0  0  0  0  0  0  0  0  0  0  0
    5.0287    4.0657   23.1504 C   0  0  0  0  0  0  0  0  0  0  0  0
    6.1308    4.6525   22.3190 C   0  0  0  0  0  0  0  0  0  0  0  0
    6.8414    3.5258   21.6294 N   0  0  0  0  0  0  0  0  0  0  0  0
    7.6082    3.6131   21.0181 H   0  0  0  0  0  0  0  0  0  0  0  0
 29 30  1  0  0  0
 30 28  1  0  0  0
  1 28  1  0  0  0
  1  2  1  0  0  0
  2  3  1  0  0  0
  3 18  1  0  0  0
 18 19  2  0  0  0
 19 20  1  0  0  0
 20 21  2  0  0  0
 21 22  1  0  0  0
 22 23  2  0  0  0
 23 24  1  0  0  0
 24 25  2  0  0  0
 25 26  1  0  0  0
 26 27  2  0  0  0
  3  4  1  0  0  0
  4  5  2  0  0  0
  4  6  1  0  0  0
  6  7  1  0  0  0
  7  8  1  0  0  0
  8 31  1  0  0  0
 31 32  1  0  0  0
 32 33  2  0  0  0
 33 34  1  0  0  0
 34 35  2  0  0  0
 35 36  1  0  0  0
  8  9  1  0  0  0
  9 10  2  0  0  0
  9 11  1  0  0  0
 11 12  2  0  0  0
 12 13  1  0  0  0
 13 14  2  0  0  0
 14 15  1  0  0  0
 14 16  1  0  0  0
 16 17  2  0  0  0
  6  1  1  0  0  0
 36 32  1  0  0  0
 17 11  1  0  0  0
 27 18  1  0  0  0
 17  6  1  0  0  0
 27 22  1  0  0  0
 36 37  1  0  0  0
M  END
> <minimizedAffinity>
-7.86419

> <CNNscore>
0.4517122209

> <CNNaffinity>
6.9677000046

> <CNN_VS>
3.1473951340

> <CNNaffinity_variance>
0.2405791283

$$$$



 37 42  0  0  0  0  0  0  0  0999 V2000
    9.1560   -1.1618   22.4132 C   0  0  0  0  0  0  0  0  0  0  0  0
    8.6736   -0.5444   21.1341 C   0  0  0  0  0  0  0  0  0  0  0  0
    7.1738   -0.5610   21.1481 N   0  0  0  0  0  0  0  0  0  0  0  0
    6.7293   -1.1887   22.4359 C   0  0  0  0  0  0  0  0  0  0  0  0
    5.3090   -1.4069   22.8663 O   0  0  0  0  0  0  0  0  0  0  0  0
    7.9544   -1.5600   23.2178 C   0  0  0  0  0  0  0  0  0  0  0  0
    6.6655   -1.9018   23.9047 C   0  0  0  0  0  0  0  0  0  0  0  0
    6.6854   -2.5563   25.2542 N   0  0  0  0  0  0  0  0  0  0  0  0
    7.9943   -2.8692   25.9168 C   0  0  0  0  0  0  0  0  0  0  0  0
    8.0142   -3.5238   27.2663 O   0  0  0  0  0  0  0  0  0  0  0  0
    9.2832   -2.5275   25.2298 C   0  0  0  0  0  0  0  0  0  0  0  0
   10.5921   -2.8403   25.8924 C   0  0  0  0  0  0  0  0  0  0  0  0
   11.8810   -2.4986   25.2055 C   0  0  0  0  0  0  0  0  0  0  0  0
   11.8610   -1.8440   23.8560 C   0  0  0  0  0  0  0  0  0  0  0  0
   13.1500   -1.5022   23.1691 Cl  0  0  0  0  0  0  0  0  0  0  0  0
   10.5522   -1.5311   23.1934 C   0  0  0  0  0  0  0  0  0  0  0  0
    9.2633   -1.8729   23.8804 C   0  0  0  0  0  0  0  0  0  0  0  0
    6.2760   -0.0413   20.0647 C   0  0  0  0  0  0  0  0  0  0  0  0
    6.2673   -0.7004   18.7174 C   0  0  0  0  0  0  0  0  0  0  0  0
    5.3696   -0.1807   17.6339 N   0  0  0  0  0  0  0  0  0  0  0  0
    4.4806    0.9983   17.8978 C   0  0  0  0  0  0  0  0  0  0  0  0
    4.4893    1.6574   19.2452 C   0  0  0  0  0  0  0  0  0  0  0  0
    3.6002    2.8365   19.5091 C   0  0  0  0  0  0  0  0  0  0  0  0
    3.6089    3.4956   20.8565 C   0  0  0  0  0  0  0  0  0  0  0  0
    4.5067    2.9758   21.9399 C   0  0  0  0  0  0  0  0  0  0  0  0
    5.3957    1.7968   21.6760 C   0  0  0  0  0  0  0  0  0  0  0  0
    5.3870    1.1377   20.3287 C   0  0  0  0  0  0  0  0  0  0  0  0
   10.5886   -1.3482   22.8168 C   0  0  0  0  0  0  0  0  0  0  0  0
   13.0598   -0.5470   22.7774 C   0  0  0  0  0  0  0  0  0  0  0  0
   11.6303   -0.3708   22.3588 O   0  0  0  0  0  0  0  0  0  0  0  0
    5.3964   -2.8981   25.9411 C   0  0  0  0  0  0  0  0  0  0  0  0
    4.8181   -4.2757   25.8083 C   0  0  0  0  0  0  0  0  0  0  0  0
    3.4710   -4.7173   26.2984 N   0  0  0  0  0  0  0  0  0  0  0  0
    3.3056   -6.1681   25.9551 C   0  0  0  0  0  0  0  0  0  0  0  0
    4.5505   -6.6231   25.2528 C   0  0  0  0  0  0  0  0  0  0  0  0
    5.4853   -5.4535   25.1621 N   0  0  0  0  0  0  0  0  0  0  0  0
    6.3796   -5.4581   24.7506 H   0  0  0  0  0  0  0  0  0  0  0  0
 29 30  1  0  0  0
 30 28  1  0  0  0
  1 28  1  0  0  0
  1  2  1  0  0  0
  2  3  1  0  0  0
  3 18  1  0  0  0
 18 19  2  0  0  0
 19 20  1  0  0  0
 20 21  2  0  0  0
 21 22  1  0  0  0
 22 23  2  0  0  0
 23 24  1  0  0  0
 24 25  2  0  0  0
 25 26  1  0  0  0
 26 27  2  0  0  0
  3  4  1  0  0  0
  4  5  2  0  0  0
  4  6  1  0  0  0
  6  7  1  0  0  0
  7  8  1  0  0  0
  8 31  1  0  0  0
 31 32  1  0  0  0
 32 33  2  0  0  0
 33 34  1  0  0  0
 34 35  2  0  0  0
 35 36  1  0  0  0
  8  9  1  0  0  0
  9 10  2  0  0  0
  9 11  1  0  0  0
 11 12  2  0  0  0
 12 13  1  0  0  0
 13 14  2  0  0  0
 14 15  1  0  0  0
 14 16  1  0  0  0
 16 17  2  0  0  0
  6  1  1  0  0  0
 36 32  1  0  0  0
 17 11  1  0  0  0
 27 18  1  0  0  0
 17  6  1  0  0  0
 27 22  1  0  0  0
 36 37  1  0  0  0
M  END
> <minimizedAffinity>
-8.55084

> <CNNscore>
0.3449611366

> <CNNaffinity>
6.6117448807

> <CNN_VS>
2.2807950974

> <CNNaffinity_variance>
0.0328119844

$$$$



 37 42  0  0  0  0  0  0  0  0999 V2000
    9.3308   -2.0873   25.1392 C   0  0  0  0  0  0  0  0  0  0  0  0
    8.6075   -3.1376   25.9290 C   0  0  0  0  0  0  0  0  0  0  0  0
    7.1453   -3.0311   25.6119 N   0  0  0  0  0  0  0  0  0  0  0  0
    6.9649   -1.9149   24.6262 C   0  0  0  0  0  0  0  0  0  0  0  0
    5.6624   -1.4616   24.0363 O   0  0  0  0  0  0  0  0  0  0  0  0
    8.3156   -1.3316   24.3341 C   0  0  0  0  0  0  0  0  0  0  0  0
    7.1920   -0.6698   23.5928 C   0  0  0  0  0  0  0  0  0  0  0  0
    7.4774    0.4692   22.6594 N   0  0  0  0  0  0  0  0  0  0  0  0
    8.8864    0.9465   22.4673 C   0  0  0  0  0  0  0  0  0  0  0  0
    9.1718    2.0855   21.5339 O   0  0  0  0  0  0  0  0  0  0  0  0
   10.0101    0.2847   23.2086 C   0  0  0  0  0  0  0  0  0  0  0  0
   11.4191    0.7619   23.0165 C   0  0  0  0  0  0  0  0  0  0  0  0
   12.5427    0.1001   23.7578 C   0  0  0  0  0  0  0  0  0  0  0  0
   12.2573   -1.0389   24.6912 C   0  0  0  0  0  0  0  0  0  0  0  0
   13.3810   -1.7006   25.4325 Cl  0  0  0  0  0  0  0  0  0  0  0  0
   10.8483   -1.5161   24.8833 C   0  0  0  0  0  0  0  0  0  0  0  0
    9.7247   -0.8543   24.1420 C   0  0  0  0  0  0  0  0  0  0  0  0
    6.0549   -3.8899   26.1806 C   0  0  0  0  0  0  0  0  0  0  0  0
    5.4736   -5.0040   25.3618 C   0  0  0  0  0  0  0  0  0  0  0  0
    4.3833   -5.8629   25.9305 N   0  0  0  0  0  0  0  0  0  0  0  0
    3.8742   -5.6075   27.3182 C   0  0  0  0  0  0  0  0  0  0  0  0
    4.4556   -4.4933   28.1371 C   0  0  0  0  0  0  0  0  0  0  0  0
    3.9465   -4.2379   29.5248 C   0  0  0  0  0  0  0  0  0  0  0  0
    4.5279   -3.1237   30.3437 C   0  0  0  0  0  0  0  0  0  0  0  0
    5.6182   -2.2649   29.7749 C   0  0  0  0  0  0  0  0  0  0  0  0
    6.1272   -2.5203   28.3872 C   0  0  0  0  0  0  0  0  0  0  0  0
    5.5459   -3.6345   27.5683 C   0  0  0  0  0  0  0  0  0  0  0  0
   10.8097   -1.8366   25.1524 C   0  0  0  0  0  0  0  0  0  0  0  0
   11.3356   -4.0155   26.4661 C   0  0  0  0  0  0  0  0  0  0  0  0
   11.7557   -2.9475   25.5004 O   0  0  0  0  0  0  0  0  0  0  0  0
    6.3537    1.1310   21.9181 C   0  0  0  0  0  0  0  0  0  0  0  0
    5.9831    2.5507   22.2296 C   0  0  0  0  0  0  0  0  0  0  0  0
    4.9266    2.9940   23.1976 N   0  0  0  0  0  0  0  0  0  0  0  0
    4.8945    4.4937   23.1941 C   0  0  0  0  0  0  0  0  0  0  0  0
    5.9313    4.9772   22.2238 C   0  0  0  0  0  0  0  0  0  0  0  0
    6.6041    3.7764   21.6277 N   0  0  0  0  0  0  0  0  0  0  0  0
    7.3264    3.7902   20.9589 H   0  0  0  0  0  0  0  0  0  0  0  0
 29 30  1  0  0  0
 30 28  1  0  0  0
  1 28  1  0  0  0
  1  2  1  0  0  0
  2  3  1  0  0  0
  3 18  1  0  0  0
 18 19  2  0  0  0
 19 20  1  0  0  0
 20 21  2  0  0  0
 21 22  1  0  0  0
 22 23  2  0  0  0
 23 24  1  0  0  0
 24 25  2  0  0  0
 25 26  1  0  0  0
 26 27  2  0  0  0
  3  4  1  0  0  0
  4  5  2  0  0  0
  4  6  1  0  0  0
  6  7  1  0  0  0
  7  8  1  0  0  0
  8 31  1  0  0  0
 31 32  1  0  0  0
 32 33  2  0  0  0
 33 34  1  0  0  0
 34 35  2  0  0  0
 35 36  1  0  0  0
  8  9  1  0  0  0
  9 10  2  0  0  0
  9 11  1  0  0  0
 11 12  2  0  0  0
 12 13  1  0  0  0
 13 14  2  0  0  0
 14 15  1  0  0  0
 14 16  1  0  0  0
 16 17  2  0  0  0
  6  1  1  0  0  0
 36 32  1  0  0  0
 17 11  1  0  0  0
 27 18  1  0  0  0
 17  6  1  0  0  0
 27 22  1  0  0  0
 36 37  1  0  0  0
M  END
> <minimizedAffinity>
-7.75703

> <CNNscore>
0.3302451968

> <CNNaffinity>
6.5953049660

> <CNN_VS>
2.1780676842

> <CNNaffinity_variance>
0.1593732089

$$$$



 37 42  0  0  0  0  0  0  0  0999 V2000
    9.3794   -2.6343   25.5143 C   0  0  0  0  0  0  0  0  0  0  0  0
    8.3821   -3.5770   26.1197 C   0  0  0  0  0  0  0  0  0  0  0  0
    7.0127   -3.1429   25.6884 N   0  0  0  0  0  0  0  0  0  0  0  0
    7.1636   -1.9317   24.8163 C   0  0  0  0  0  0  0  0  0  0  0  0
    6.0477   -1.1689   24.1661 O   0  0  0  0  0  0  0  0  0  0  0  0
    8.6264   -1.6174   24.7087 C   0  0  0  0  0  0  0  0  0  0  0  0
    7.7423   -0.6752   23.9468 C   0  0  0  0  0  0  0  0  0  0  0  0
    8.3459    0.4571   23.1701 N   0  0  0  0  0  0  0  0  0  0  0  0
    9.8337    0.6473   23.1553 C   0  0  0  0  0  0  0  0  0  0  0  0
   10.4374    1.7797   22.3785 O   0  0  0  0  0  0  0  0  0  0  0  0
   10.7179   -0.2949   23.9172 C   0  0  0  0  0  0  0  0  0  0  0  0
   12.2057   -0.1047   23.9024 C   0  0  0  0  0  0  0  0  0  0  0  0
   13.0898   -1.0469   24.6644 C   0  0  0  0  0  0  0  0  0  0  0  0
   12.4861   -2.1793   25.4411 C   0  0  0  0  0  0  0  0  0  0  0  0
   13.3703   -3.1215   26.2031 Cl  0  0  0  0  0  0  0  0  0  0  0  0
   10.9984   -2.3694   25.4559 C   0  0  0  0  0  0  0  0  0  0  0  0
   10.1142   -1.4272   24.6940 C   0  0  0  0  0  0  0  0  0  0  0  0
    5.7193   -3.8037   26.0632 C   0  0  0  0  0  0  0  0  0  0  0  0
    5.1375   -3.5924   27.4294 C   0  0  0  0  0  0  0  0  0  0  0  0
    3.8441   -4.2533   27.8042 N   0  0  0  0  0  0  0  0  0  0  0  0
    3.1327   -5.1255   26.8128 C   0  0  0  0  0  0  0  0  0  0  0  0
    3.7145   -5.3368   25.4464 C   0  0  0  0  0  0  0  0  0  0  0  0
    3.0030   -6.2090   24.4549 C   0  0  0  0  0  0  0  0  0  0  0  0
    3.5850   -6.4203   23.0886 C   0  0  0  0  0  0  0  0  0  0  0  0
    4.8783   -5.7594   22.7139 C   0  0  0  0  0  0  0  0  0  0  0  0
    5.5897   -4.8872   23.7054 C   0  0  0  0  0  0  0  0  0  0  0  0
    5.0079   -4.6759   25.0716 C   0  0  0  0  0  0  0  0  0  0  0  0
   10.8684   -2.6973   25.6845 C   0  0  0  0  0  0  0  0  0  0  0  0
   10.7078   -4.5593   27.4892 C   0  0  0  0  0  0  0  0  0  0  0  0
   11.4595   -3.4275   26.8539 O   0  0  0  0  0  0  0  0  0  0  0  0
    7.4617    1.3994   22.4081 C   0  0  0  0  0  0  0  0  0  0  0  0
    7.3231    2.8245   22.8548 C   0  0  0  0  0  0  0  0  0  0  0  0
    7.5348    3.3361   24.2489 N   0  0  0  0  0  0  0  0  0  0  0  0
    7.2909    4.8161   24.2416 C   0  0  0  0  0  0  0  0  0  0  0  0
    6.9285    5.2193   22.8429 C   0  0  0  0  0  0  0  0  0  0  0  0
    6.9484    3.9884   21.9859 N   0  0  0  0  0  0  0  0  0  0  0  0
    6.7503    3.9510   21.0223 H   0  0  0  0  0  0  0  0  0  0  0  0
 29 30  1  0  0  0
 30 28  1  0  0  0
  1 28  1  0  0  0
  1  2  1  0  0  0
  2  3  1  0  0  0
  3 18  1  0  0  0
 18 19  2  0  0  0
 19 20  1  0  0  0
 20 21  2  0  0  0
 21 22  1  0  0  0
 22 23  2  0  0  0
 23 24  1  0  0  0
 24 25  2  0  0  0
 25 26  1  0  0  0
 26 27  2  0  0  0
  3  4  1  0  0  0
  4  5  2  0  0  0
  4  6  1  0  0  0
  6  7  1  0  0  0
  7  8  1  0  0  0
  8 31  1  0  0  0
 31 32  1  0  0  0
 32 33  2  0  0  0
 33 34  1  0  0  0
 34 35  2  0  0  0
 35 36  1  0  0  0
  8  9  1  0  0  0
  9 10  2  0  0  0
  9 11  1  0  0  0
 11 12  2  0  0  0
 12 13  1  0  0  0
 13 14  2  0  0  0
 14 15  1  0  0  0
 14 16  1  0  0  0
 16 17  2  0  0  0
  6  1  1  0  0  0
 36 32  1  0  0  0
 17 11  1  0  0  0
 27 18  1  0  0  0
 17  6  1  0  0  0
 27 22  1  0  0  0
 36 37  1  0  0  0
M  END
> <minimizedAffinity>
-7.91372

> <CNNscore>
0.3170232177

> <CNNaffinity>
6.6478104591

> <CNN_VS>
2.1075103283

> <CNNaffinity_variance>
0.2082702816

$$$$



 37 42  0  0  0  0  0  0  0  0999 V2000
    9.4987   -3.1906   24.5591 C   0  0  0  0  0  0  0  0  0  0  0  0
    8.4865   -4.2832   24.7368 C   0  0  0  0  0  0  0  0  0  0  0  0
    7.2521   -3.8997   23.9758 N   0  0  0  0  0  0  0  0  0  0  0  0
    7.5014   -2.5700   23.3278 C   0  0  0  0  0  0  0  0  0  0  0  0
    6.5324   -1.8118   22.4699 O   0  0  0  0  0  0  0  0  0  0  0  0
    8.8900   -2.1318   23.6883 C   0  0  0  0  0  0  0  0  0  0  0  0
    8.1526   -1.1629   22.8122 C   0  0  0  0  0  0  0  0  0  0  0  0
    8.8159    0.1105   22.3781 N   0  0  0  0  0  0  0  0  0  0  0  0
   10.2165    0.4151   22.8201 C   0  0  0  0  0  0  0  0  0  0  0  0
   10.8798    1.6885   22.3860 O   0  0  0  0  0  0  0  0  0  0  0  0
   10.9540   -0.5538   23.6962 C   0  0  0  0  0  0  0  0  0  0  0  0
   12.3546   -0.2492   24.1382 C   0  0  0  0  0  0  0  0  0  0  0  0
   13.0919   -1.2181   25.0143 C   0  0  0  0  0  0  0  0  0  0  0  0
   12.4287   -2.4915   25.4484 C   0  0  0  0  0  0  0  0  0  0  0  0
   13.1661   -3.4604   26.3245 Cl  0  0  0  0  0  0  0  0  0  0  0  0
   11.0280   -2.7961   25.0064 C   0  0  0  0  0  0  0  0  0  0  0  0
   10.2907   -1.8272   24.1303 C   0  0  0  0  0  0  0  0  0  0  0  0
    5.9899   -4.7044   23.8796 C   0  0  0  0  0  0  0  0  0  0  0  0
    5.6388   -5.3984   22.5971 C   0  0  0  0  0  0  0  0  0  0  0  0
    4.3766   -6.2032   22.5010 N   0  0  0  0  0  0  0  0  0  0  0  0
    3.4655   -6.3139   23.6874 C   0  0  0  0  0  0  0  0  0  0  0  0
    3.8167   -5.6198   24.9700 C   0  0  0  0  0  0  0  0  0  0  0  0
    2.9055   -5.7305   26.1565 C   0  0  0  0  0  0  0  0  0  0  0  0
    3.2567   -5.0364   27.4390 C   0  0  0  0  0  0  0  0  0  0  0  0
    4.5188   -4.2317   27.5351 C   0  0  0  0  0  0  0  0  0  0  0  0
    5.4299   -4.1210   26.3487 C   0  0  0  0  0  0  0  0  0  0  0  0
    5.0788   -4.8151   25.0662 C   0  0  0  0  0  0  0  0  0  0  0  0
   10.8777   -3.1619   25.1487 C   0  0  0  0  0  0  0  0  0  0  0  0
   10.4457   -4.1919   27.4945 C   0  0  0  0  0  0  0  0  0  0  0  0
   11.2512   -4.1314   26.2306 O   0  0  0  0  0  0  0  0  0  0  0  0
    8.0785    1.0794   21.5020 C   0  0  0  0  0  0  0  0  0  0  0  0
    7.5414    2.3549   22.0804 C   0  0  0  0  0  0  0  0  0  0  0  0
    6.0927    2.7117   22.2349 N   0  0  0  0  0  0  0  0  0  0  0  0
    6.0147    4.0748   22.8559 C   0  0  0  0  0  0  0  0  0  0  0  0
    7.4153    4.5606   23.0852 C   0  0  0  0  0  0  0  0  0  0  0  0
    8.3588    3.4976   22.6059 N   0  0  0  0  0  0  0  0  0  0  0  0
    9.3420    3.5421   22.6317 H   0  0  0  0  0  0  0  0  0  0  0  0
 29 30  1  0  0  0
 30 28  1  0  0  0
  1 28  1  0  0  0
  1  2  1  0  0  0
  2  3  1  0  0  0
  3 18  1  0  0  0
 18 19  2  0  0  0
 19 20  1  0  0  0
 20 21  2  0  0  0
 21 22  1  0  0  0
 22 23  2  0  0  0
 23 24  1  0  0  0
 24 25  2  0  0  0
 25 26  1  0  0  0
 26 27  2  0  0  0
  3  4  1  0  0  0
  4  5  2  0  0  0
  4  6  1  0  0  0
  6  7  1  0  0  0
  7  8  1  0  0  0
  8 31  1  0  0  0
 31 32  1  0  0  0
 32 33  2  0  0  0
 33 34  1  0  0  0
 34 35  2  0  0  0
 35 36  1  0  0  0
  8  9  1  0  0  0
  9 10  2  0  0  0
  9 11  1  0  0  0
 11 12  2  0  0  0
 12 13  1  0  0  0
 13 14  2  0  0  0
 14 15  1  0  0  0
 14 16  1  0  0  0
 16 17  2  0  0  0
  6  1  1  0  0  0
 36 32  1  0  0  0
 17 11  1  0  0  0
 27 18  1  0  0  0
 17  6  1  0  0  0
 27 22  1  0  0  0
 36 37  1  0  0  0
M  END
> <minimizedAffinity>
-8.33431

> <CNNscore>
0.2991935611

> <CNNaffinity>
6.6136498451

> <CNN_VS>
1.9787614346

> <CNNaffinity_variance>
0.1374562085

$$$$



 37 42  0  0  0  0  0  0  0  0999 V2000
    9.4015   -2.2307   25.1963 C   0  0  0  0  0  0  0  0  0  0  0  0
    8.6472   -3.3087   25.9168 C   0  0  0  0  0  0  0  0  0  0  0  0
    7.1873   -3.1283   25.6234 N   0  0  0  0  0  0  0  0  0  0  0  0
    7.0393   -1.9388   24.7215 C   0  0  0  0  0  0  0  0  0  0  0  0
    5.7493   -1.3989   24.1789 O   0  0  0  0  0  0  0  0  0  0  0  0
    8.4077   -1.3841   24.4576 C   0  0  0  0  0  0  0  0  0  0  0  0
    7.3028   -0.6319   23.7770 C   0  0  0  0  0  0  0  0  0  0  0  0
    7.6215    0.5602   22.9241 N   0  0  0  0  0  0  0  0  0  0  0  0
    9.0452    1.0000   22.7518 C   0  0  0  0  0  0  0  0  0  0  0  0
    9.3639    2.1921   21.8989 O   0  0  0  0  0  0  0  0  0  0  0  0
   10.1502    0.2478   23.4324 C   0  0  0  0  0  0  0  0  0  0  0  0
   11.5738    0.6876   23.2600 C   0  0  0  0  0  0  0  0  0  0  0  0
   12.6788   -0.0646   23.9406 C   0  0  0  0  0  0  0  0  0  0  0  0
   12.3601   -1.2567   24.7935 C   0  0  0  0  0  0  0  0  0  0  0  0
   13.4651   -2.0089   25.4741 Cl  0  0  0  0  0  0  0  0  0  0  0  0
   10.9364   -1.6965   24.9658 C   0  0  0  0  0  0  0  0  0  0  0  0
    9.8315   -0.9443   24.2853 C   0  0  0  0  0  0  0  0  0  0  0  0
    6.0713   -3.9866   26.1409 C   0  0  0  0  0  0  0  0  0  0  0  0
    5.4904   -5.0643   25.2744 C   0  0  0  0  0  0  0  0  0  0  0  0
    4.3744   -5.9227   25.7919 N   0  0  0  0  0  0  0  0  0  0  0  0
    3.8394   -5.7032   27.1760 C   0  0  0  0  0  0  0  0  0  0  0  0
    4.4204   -4.6255   28.0425 C   0  0  0  0  0  0  0  0  0  0  0  0
    3.8854   -4.4060   29.4266 C   0  0  0  0  0  0  0  0  0  0  0  0
    4.4665   -3.3282   30.2931 C   0  0  0  0  0  0  0  0  0  0  0  0
    5.5824   -2.4700   29.7755 C   0  0  0  0  0  0  0  0  0  0  0  0
    6.1174   -2.6894   28.3915 C   0  0  0  0  0  0  0  0  0  0  0  0
    5.5364   -3.7671   27.5250 C   0  0  0  0  0  0  0  0  0  0  0  0
   10.8884   -2.0339   25.2118 C   0  0  0  0  0  0  0  0  0  0  0  0
   11.1927   -4.3388   26.3716 C   0  0  0  0  0  0  0  0  0  0  0  0
   11.7843   -3.1254   25.7177 O   0  0  0  0  0  0  0  0  0  0  0  0
    6.5165    1.3124   22.2435 C   0  0  0  0  0  0  0  0  0  0  0  0
    6.1423    0.9792   20.8297 C   0  0  0  0  0  0  0  0  0  0  0  0
    7.0393    0.3501   19.8052 N   0  0  0  0  0  0  0  0  0  0  0  0
    6.2567    0.1986   18.5345 C   0  0  0  0  0  0  0  0  0  0  0  0
    4.8761    0.7341   18.7737 C   0  0  0  0  0  0  0  0  0  0  0  0
    4.8054    1.2165   20.1922 N   0  0  0  0  0  0  0  0  0  0  0  0
    4.0195    1.6183   20.6283 H   0  0  0  0  0  0  0  0  0  0  0  0
 29 30  1  0  0  0
 30 28  1  0  0  0
  1 28  1  0  0  0
  1  2  1  0  0  0
  2  3  1  0  0  0
  3 18  1  0  0  0
 18 19  2  0  0  0
 19 20  1  0  0  0
 20 21  2  0  0  0
 21 22  1  0  0  0
 22 23  2  0  0  0
 23 24  1  0  0  0
 24 25  2  0  0  0
 25 26  1  0  0  0
 26 27  2  0  0  0
  3  4  1  0  0  0
  4  5  2  0  0  0
  4  6  1  0  0  0
  6  7  1  0  0  0
  7  8  1  0  0  0
  8 31  1  0  0  0
 31 32  1  0  0  0
 32 33  2  0  0  0
 33 34  1  0  0  0
 34 35  2  0  0  0
 35 36  1  0  0  0
  8  9  1  0  0  0
  9 10  2  0  0  0
  9 11  1  0  0  0
 11 12  2  0  0  0
 12 13  1  0  0  0
 13 14  2  0  0  0
 14 15  1  0  0  0
 14 16  1  0  0  0
 16 17  2  0  0  0
  6  1  1  0  0  0
 36 32  1  0  0  0
 17 11  1  0  0  0
 27 18  1  0  0  0
 17  6  1  0  0  0
 27 22  1  0  0  0
 36 37  1  0  0  0
M  END
> <minimizedAffinity>
-8.46263

> <CNNscore>
0.2802575827

> <CNNaffinity>
6.4871063232

> <CNN_VS>
1.8180607557

> <CNNaffinity_variance>
0.0956988707

$$$$



 37 42  0  0  0  0  0  0  0  0999 V2000
    8.9925   -2.6262   24.0683 C   0  0  0  0  0  0  0  0  0  0  0  0
    8.1449   -3.8147   24.4129 C   0  0  0  0  0  0  0  0  0  0  0  0
    6.8141   -3.6452   23.7419 N   0  0  0  0  0  0  0  0  0  0  0  0
    6.8393   -2.3518   22.9825 C   0  0  0  0  0  0  0  0  0  0  0  0
    5.7155   -1.7874   22.1650 O   0  0  0  0  0  0  0  0  0  0  0  0
    8.1857   -1.7220   23.1842 C   0  0  0  0  0  0  0  0  0  0  0  0
    7.2627   -0.9228   22.3129 C   0  0  0  0  0  0  0  0  0  0  0  0
    7.7216    0.3820   21.7325 N   0  0  0  0  0  0  0  0  0  0  0  0
    9.1036    0.8876   22.0234 C   0  0  0  0  0  0  0  0  0  0  0  0
    9.5625    2.1924   21.4430 O   0  0  0  0  0  0  0  0  0  0  0  0
   10.0266    0.0883   22.8948 C   0  0  0  0  0  0  0  0  0  0  0  0
   11.4085    0.5939   23.1857 C   0  0  0  0  0  0  0  0  0  0  0  0
   12.3315   -0.2054   24.0570 C   0  0  0  0  0  0  0  0  0  0  0  0
   11.8726   -1.5102   24.6374 C   0  0  0  0  0  0  0  0  0  0  0  0
   12.7957   -2.3094   25.5088 Cl  0  0  0  0  0  0  0  0  0  0  0  0
   10.4907   -2.0157   24.3465 C   0  0  0  0  0  0  0  0  0  0  0  0
    9.5677   -1.2165   23.4752 C   0  0  0  0  0  0  0  0  0  0  0  0
    5.6606   -4.6011   23.8170 C   0  0  0  0  0  0  0  0  0  0  0  0
    5.2277   -5.3517   22.5927 C   0  0  0  0  0  0  0  0  0  0  0  0
    4.0742   -6.3076   22.6678 N   0  0  0  0  0  0  0  0  0  0  0  0
    3.3536   -6.5128   23.9673 C   0  0  0  0  0  0  0  0  0  0  0  0
    3.7866   -5.7621   25.1917 C   0  0  0  0  0  0  0  0  0  0  0  0
    3.0659   -5.9674   26.4912 C   0  0  0  0  0  0  0  0  0  0  0  0
    3.4990   -5.2166   27.7155 C   0  0  0  0  0  0  0  0  0  0  0  0
    4.6524   -4.2608   27.6403 C   0  0  0  0  0  0  0  0  0  0  0  0
    5.3730   -4.0556   26.3408 C   0  0  0  0  0  0  0  0  0  0  0  0
    4.9401   -4.8062   25.1165 C   0  0  0  0  0  0  0  0  0  0  0  0
   10.4000   -2.3842   24.5271 C   0  0  0  0  0  0  0  0  0  0  0  0
   10.5866   -4.3993   26.1564 C   0  0  0  0  0  0  0  0  0  0  0  0
   11.1998   -3.5072   25.1182 O   0  0  0  0  0  0  0  0  0  0  0  0
    6.7986    1.1813   20.8611 C   0  0  0  0  0  0  0  0  0  0  0  0
    6.2601    2.4949   21.3453 C   0  0  0  0  0  0  0  0  0  0  0  0
    4.8237    2.9257   21.3102 N   0  0  0  0  0  0  0  0  0  0  0  0
    4.7393    4.3054   21.8928 C   0  0  0  0  0  0  0  0  0  0  0  0
    6.1235    4.7272   22.2880 C   0  0  0  0  0  0  0  0  0  0  0  0
    7.0634    3.6082   21.9496 N   0  0  0  0  0  0  0  0  0  0  0  0
    8.0366    3.6051   22.0980 H   0  0  0  0  0  0  0  0  0  0  0  0
 29 30  1  0  0  0
 30 28  1  0  0  0
  1 28  1  0  0  0
  1  2  1  0  0  0
  2  3  1  0  0  0
  3 18  1  0  0  0
 18 19  2  0  0  0
 19 20  1  0  0  0
 20 21  2  0  0  0
 21 22  1  0  0  0
 22 23  2  0  0  0
 23 24  1  0  0  0
 24 25  2  0  0  0
 25 26  1  0  0  0
 26 27  2  0  0  0
  3  4  1  0  0  0
  4  5  2  0  0  0
  4  6  1  0  0  0
  6  7  1  0  0  0
  7  8  1  0  0  0
  8 31  1  0  0  0
 31 32  1  0  0  0
 32 33  2  0  0  0
 33 34  1  0  0  0
 34 35  2  0  0  0
 35 36  1  0  0  0
  8  9  1  0  0  0
  9 10  2  0  0  0
  9 11  1  0  0  0
 11 12  2  0  0  0
 12 13  1  0  0  0
 13 14  2  0  0  0
 14 15  1  0  0  0
 14 16  1  0  0  0
 16 17  2  0  0  0
  6  1  1  0  0  0
 36 32  1  0  0  0
 17 11  1  0  0  0
 27 18  1  0  0  0
 17  6  1  0  0  0
 27 22  1  0  0  0
 36 37  1  0  0  0
M  END
> <minimizedAffinity>
-8.00988

> <CNNscore>
0.2668028772

> <CNNaffinity>
6.4835762978

> <CNN_VS>
1.7298368216

> <CNNaffinity_variance>
0.1518033445

$$$$
