


 25 28  0  0  0  0  0  0  0  0999 V2000
   -8.2421   -0.4796  -22.2052 O   0  0  0  0  0  0  0  0  0  0  0  0
   -7.6638   -1.8551  -22.3594 C   0  0  0  0  0  0  0  0  0  0  0  0
   -8.2844   -2.8263  -23.3195 N   0  0  0  0  0  0  0  0  0  0  0  0
   -7.7061   -4.2017  -23.4738 C   0  0  0  0  0  0  0  0  0  0  0  0
   -8.3267   -5.1729  -24.4338 C   0  0  0  0  0  0  0  0  0  0  0  0
   -9.5255   -4.7687  -25.2395 C   0  0  0  0  0  0  0  0  0  0  0  0
  -10.1039   -3.3932  -25.0853 C   0  0  0  0  0  0  0  0  0  0  0  0
   -9.4833   -2.4220  -24.1252 C   0  0  0  0  0  0  0  0  0  0  0  0
  -10.0616   -1.0466  -23.9710 C   0  0  0  0  0  0  0  0  0  0  0  0
  -11.3522   -0.8544  -23.2311 C   0  0  0  0  0  0  0  0  0  0  0  0
  -11.9305    0.5211  -23.0768 C   0  0  0  0  0  0  0  0  0  0  0  0
  -11.2182    1.7042  -23.6624 C   0  0  0  0  0  0  0  0  0  0  0  0
   -9.9276    1.5119  -24.4022 C   0  0  0  0  0  0  0  0  0  0  0  0
   -9.3493    0.1365  -24.5565 C   0  0  0  0  0  0  0  0  0  0  0  0
   -6.4649   -2.2593  -21.5537 C   0  0  0  0  0  0  0  0  0  0  0  0
   -5.9750   -1.3771  -20.4439 C   0  0  0  0  0  0  0  0  0  0  0  0
   -6.5741   -1.4928  -19.0737 C   0  0  0  0  0  0  0  0  0  0  0  0
   -6.0842   -0.6106  -17.9639 N   0  0  0  0  0  0  0  0  0  0  0  0
   -4.9951    0.3873  -18.2243 C   0  0  0  0  0  0  0  0  0  0  0  0
   -4.3959    0.5032  -19.5945 C   0  0  0  0  0  0  0  0  0  0  0  0
   -3.3068    1.5011  -19.8550 C   0  0  0  0  0  0  0  0  0  0  0  0
   -2.7076    1.6169  -21.2252 C   0  0  0  0  0  0  0  0  0  0  0  0
   -3.1976    0.7347  -22.3350 C   0  0  0  0  0  0  0  0  0  0  0  0
   -4.2867   -0.2633  -22.0746 C   0  0  0  0  0  0  0  0  0  0  0  0
   -4.8858   -0.3791  -20.7044 C   0  0  0  0  0  0  0  0  0  0  0  0
  1  2  2  0  0  0
  2 15  1  0  0  0
 15 16  1  0  0  0
 16 17  2  0  0  0
 17 18  1  0  0  0
 18 19  2  0  0  0
 19 20  1  0  0  0
 20 21  2  0  0  0
 21 22  1  0  0  0
 22 23  2  0  0  0
 23 24  1  0  0  0
 24 25  2  0  0  0
  2  3  1  0  0  0
  3  4  1  0  0  0
  4  5  1  0  0  0
  5  6  1  0  0  0
  6  7  1  0  0  0
  7  8  1  0  0  0
  8  9  1  0  0  0
  9 10  2  0  0  0
 10 11  1  0  0  0
 11 12  2  0  0  0
 12 13  1  0  0  0
 13 14  2  0  0  0
 25 16  1  0  0  0
  8  3  1  0  0  0
 14  9  1  0  0  0
 25 20  1  0  0  0
M  END
> <minimizedAffinity>
-7.32398

> <CNNscore>
0.6206035614

> <CNNaffinity>
5.4220190048

> <CNN_VS>
3.3649241924

> <CNNaffinity_variance>
0.3327051401

$$$$



 25 28  0  0  0  0  0  0  0  0999 V2000
   -8.0749   -1.6613  -21.8769 O   0  0  0  0  0  0  0  0  0  0  0  0
   -7.0910   -2.7649  -22.1304 C   0  0  0  0  0  0  0  0  0  0  0  0
   -7.3653   -3.7840  -23.1963 N   0  0  0  0  0  0  0  0  0  0  0  0
   -6.3815   -4.8876  -23.4499 C   0  0  0  0  0  0  0  0  0  0  0  0
   -6.6558   -5.9067  -24.5158 C   0  0  0  0  0  0  0  0  0  0  0  0
   -7.9139   -5.8223  -25.3281 C   0  0  0  0  0  0  0  0  0  0  0  0
   -8.8978   -4.7187  -25.0746 C   0  0  0  0  0  0  0  0  0  0  0  0
   -8.6235   -3.6996  -24.0087 C   0  0  0  0  0  0  0  0  0  0  0  0
   -9.6073   -2.5961  -23.7552 C   0  0  0  0  0  0  0  0  0  0  0  0
   -9.3315   -1.2133  -24.2668 C   0  0  0  0  0  0  0  0  0  0  0  0
  -10.3153   -0.1097  -24.0132 C   0  0  0  0  0  0  0  0  0  0  0  0
  -11.5749   -0.3889  -23.2481 C   0  0  0  0  0  0  0  0  0  0  0  0
  -11.8507   -1.7718  -22.7365 C   0  0  0  0  0  0  0  0  0  0  0  0
  -10.8669   -2.8753  -22.9900 C   0  0  0  0  0  0  0  0  0  0  0  0
   -5.8329   -2.8493  -21.3181 C   0  0  0  0  0  0  0  0  0  0  0  0
   -5.5289   -1.7958  -20.2945 C   0  0  0  0  0  0  0  0  0  0  0  0
   -5.9788   -1.9771  -18.8751 C   0  0  0  0  0  0  0  0  0  0  0  0
   -5.6748   -0.9236  -17.8516 N   0  0  0  0  0  0  0  0  0  0  0  0
   -4.9210    0.3113  -18.2474 C   0  0  0  0  0  0  0  0  0  0  0  0
   -4.4710    0.4927  -19.6668 C   0  0  0  0  0  0  0  0  0  0  0  0
   -3.7172    1.7275  -20.0626 C   0  0  0  0  0  0  0  0  0  0  0  0
   -3.2672    1.9089  -21.4820 C   0  0  0  0  0  0  0  0  0  0  0  0
   -3.5712    0.8554  -22.5055 C   0  0  0  0  0  0  0  0  0  0  0  0
   -4.3251   -0.3795  -22.1097 C   0  0  0  0  0  0  0  0  0  0  0  0
   -4.7750   -0.5609  -20.6904 C   0  0  0  0  0  0  0  0  0  0  0  0
  1  2  2  0  0  0
  2 15  1  0  0  0
 15 16  1  0  0  0
 16 17  2  0  0  0
 17 18  1  0  0  0
 18 19  2  0  0  0
 19 20  1  0  0  0
 20 21  2  0  0  0
 21 22  1  0  0  0
 22 23  2  0  0  0
 23 24  1  0  0  0
 24 25  2  0  0  0
  2  3  1  0  0  0
  3  4  1  0  0  0
  4  5  1  0  0  0
  5  6  1  0  0  0
  6  7  1  0  0  0
  7  8  1  0  0  0
  8  9  1  0  0  0
  9 10  2  0  0  0
 10 11  1  0  0  0
 11 12  2  0  0  0
 12 13  1  0  0  0
 13 14  2  0  0  0
 25 16  1  0  0  0
  8  3  1  0  0  0
 14  9  1  0  0  0
 25 20  1  0  0  0
M  END
> <minimizedAffinity>
-7.43688

> <CNNscore>
0.6075310707

> <CNNaffinity>
5.4296331406

> <CNN_VS>
3.2986707687

> <CNNaffinity_variance>
0.3731996417

$$$$



 25 28  0  0  0  0  0  0  0  0999 V2000
   -8.8261   -0.6238  -21.9120 O   0  0  0  0  0  0  0  0  0  0  0  0
   -7.5358   -1.1576  -22.4600 C   0  0  0  0  0  0  0  0  0  0  0  0
   -7.2467   -1.0589  -23.9286 N   0  0  0  0  0  0  0  0  0  0  0  0
   -5.9565   -1.5927  -24.4766 C   0  0  0  0  0  0  0  0  0  0  0  0
   -5.6675   -1.4940  -25.9452 C   0  0  0  0  0  0  0  0  0  0  0  0
   -6.6687   -0.8615  -26.8658 C   0  0  0  0  0  0  0  0  0  0  0  0
   -7.9590   -0.3276  -26.3178 C   0  0  0  0  0  0  0  0  0  0  0  0
   -8.2480   -0.4263  -24.8492 C   0  0  0  0  0  0  0  0  0  0  0  0
   -9.5382    0.1075  -24.3012 C   0  0  0  0  0  0  0  0  0  0  0  0
  -10.6850   -0.8238  -24.0413 C   0  0  0  0  0  0  0  0  0  0  0  0
  -11.9753   -0.2900  -23.4933 C   0  0  0  0  0  0  0  0  0  0  0  0
  -12.1187    1.1750  -23.2051 C   0  0  0  0  0  0  0  0  0  0  0  0
  -10.9718    2.1063  -23.4650 C   0  0  0  0  0  0  0  0  0  0  0  0
   -9.6816    1.5725  -24.0130 C   0  0  0  0  0  0  0  0  0  0  0  0
   -6.5346   -1.7902  -21.5395 C   0  0  0  0  0  0  0  0  0  0  0  0
   -5.9918   -1.0154  -20.3754 C   0  0  0  0  0  0  0  0  0  0  0  0
   -6.6354   -1.1394  -19.0262 C   0  0  0  0  0  0  0  0  0  0  0  0
   -6.0926   -0.3647  -17.8621 N   0  0  0  0  0  0  0  0  0  0  0  0
   -4.9062    0.5342  -18.0472 C   0  0  0  0  0  0  0  0  0  0  0  0
   -4.2624    0.6583  -19.3964 C   0  0  0  0  0  0  0  0  0  0  0  0
   -3.0759    1.5571  -19.5815 C   0  0  0  0  0  0  0  0  0  0  0  0
   -2.4323    1.6812  -20.9306 C   0  0  0  0  0  0  0  0  0  0  0  0
   -2.9751    0.9064  -22.0947 C   0  0  0  0  0  0  0  0  0  0  0  0
   -4.1615    0.0076  -21.9096 C   0  0  0  0  0  0  0  0  0  0  0  0
   -4.8052   -0.1165  -20.5605 C   0  0  0  0  0  0  0  0  0  0  0  0
  1  2  2  0  0  0
  2 15  1  0  0  0
 15 16  1  0  0  0
 16 17  2  0  0  0
 17 18  1  0  0  0
 18 19  2  0  0  0
 19 20  1  0  0  0
 20 21  2  0  0  0
 21 22  1  0  0  0
 22 23  2  0  0  0
 23 24  1  0  0  0
 24 25  2  0  0  0
  2  3  1  0  0  0
  3  4  1  0  0  0
  4  5  1  0  0  0
  5  6  1  0  0  0
  6  7  1  0  0  0
  7  8  1  0  0  0
  8  9  1  0  0  0
  9 10  2  0  0  0
 10 11  1  0  0  0
 11 12  2  0  0  0
 12 13  1  0  0  0
 13 14  2  0  0  0
 25 16  1  0  0  0
  8  3  1  0  0  0
 14  9  1  0  0  0
 25 20  1  0  0  0
M  END
> <minimizedAffinity>
-6.51241

> <CNNscore>
0.5006859303

> <CNNaffinity>
5.1945137978

> <CNN_VS>
2.6008200645

> <CNNaffinity_variance>
0.1350855082

$$$$



 25 28  0  0  0  0  0  0  0  0999 V2000
   -7.2433   -3.9196  -23.1894 O   0  0  0  0  0  0  0  0  0  0  0  0
   -8.1299   -3.4809  -24.3171 C   0  0  0  0  0  0  0  0  0  0  0  0
   -8.4184   -4.4178  -25.4524 N   0  0  0  0  0  0  0  0  0  0  0  0
   -9.3049   -3.9791  -26.5800 C   0  0  0  0  0  0  0  0  0  0  0  0
   -9.5934   -4.9161  -27.7153 C   0  0  0  0  0  0  0  0  0  0  0  0
   -8.9954   -6.2917  -27.7230 C   0  0  0  0  0  0  0  0  0  0  0  0
   -8.1088   -6.7304  -26.5953 C   0  0  0  0  0  0  0  0  0  0  0  0
   -7.8203   -5.7934  -25.4600 C   0  0  0  0  0  0  0  0  0  0  0  0
   -6.9338   -6.2321  -24.3324 C   0  0  0  0  0  0  0  0  0  0  0  0
   -5.4458   -6.0803  -24.4455 C   0  0  0  0  0  0  0  0  0  0  0  0
   -4.5592   -6.5189  -23.3179 C   0  0  0  0  0  0  0  0  0  0  0  0
   -5.1606   -7.1094  -22.0771 C   0  0  0  0  0  0  0  0  0  0  0  0
   -6.6487   -7.2612  -21.9639 C   0  0  0  0  0  0  0  0  0  0  0  0
   -7.5352   -6.8225  -23.0915 C   0  0  0  0  0  0  0  0  0  0  0  0
   -8.7279   -2.1053  -24.3094 C   0  0  0  0  0  0  0  0  0  0  0  0
  -10.1173   -1.8944  -23.7848 C   0  0  0  0  0  0  0  0  0  0  0  0
  -10.9208   -3.0638  -23.2982 C   0  0  0  0  0  0  0  0  0  0  0  0
  -12.3101   -2.8529  -22.7736 N   0  0  0  0  0  0  0  0  0  0  0  0
  -12.8960   -1.4726  -22.7356 C   0  0  0  0  0  0  0  0  0  0  0  0
  -12.0925   -0.3031  -23.2222 C   0  0  0  0  0  0  0  0  0  0  0  0
  -12.6783    1.0772  -23.1843 C   0  0  0  0  0  0  0  0  0  0  0  0
  -11.8748    2.2466  -23.6709 C   0  0  0  0  0  0  0  0  0  0  0  0
  -10.4855    2.0357  -24.1955 C   0  0  0  0  0  0  0  0  0  0  0  0
   -9.8996    0.6554  -24.2335 C   0  0  0  0  0  0  0  0  0  0  0  0
  -10.7031   -0.5140  -23.7468 C   0  0  0  0  0  0  0  0  0  0  0  0
  1  2  2  0  0  0
  2 15  1  0  0  0
 15 16  1  0  0  0
 16 17  2  0  0  0
 17 18  1  0  0  0
 18 19  2  0  0  0
 19 20  1  0  0  0
 20 21  2  0  0  0
 21 22  1  0  0  0
 22 23  2  0  0  0
 23 24  1  0  0  0
 24 25  2  0  0  0
  2  3  1  0  0  0
  3  4  1  0  0  0
  4  5  1  0  0  0
  5  6  1  0  0  0
  6  7  1  0  0  0
  7  8  1  0  0  0
  8  9  1  0  0  0
  9 10  2  0  0  0
 10 11  1  0  0  0
 11 12  2  0  0  0
 12 13  1  0  0  0
 13 14  2  0  0  0
 25 16  1  0  0  0
  8  3  1  0  0  0
 14  9  1  0  0  0
 25 20  1  0  0  0
M  END
> <minimizedAffinity>
-7.14604

> <CNNscore>
0.4797020257

> <CNNaffinity>
5.3483672142

> <CNN_VS>
2.5656225681

> <CNNaffinity_variance>
0.3151856065

$$$$



 25 28  0  0  0  0  0  0  0  0999 V2000
   -7.3547   -0.0230  -22.3693 O   0  0  0  0  0  0  0  0  0  0  0  0
   -7.6171    0.8889  -23.5311 C   0  0  0  0  0  0  0  0  0  0  0  0
   -6.7615    2.1031  -23.7397 N   0  0  0  0  0  0  0  0  0  0  0  0
   -7.0239    3.0149  -24.9015 C   0  0  0  0  0  0  0  0  0  0  0  0
   -6.1683    4.2292  -25.1101 C   0  0  0  0  0  0  0  0  0  0  0  0
   -5.0503    4.5316  -24.1569 C   0  0  0  0  0  0  0  0  0  0  0  0
   -4.7879    3.6198  -22.9951 C   0  0  0  0  0  0  0  0  0  0  0  0
   -5.6435    2.4056  -22.7865 C   0  0  0  0  0  0  0  0  0  0  0  0
   -5.3811    1.4938  -21.6247 C   0  0  0  0  0  0  0  0  0  0  0  0
   -6.0268    1.7645  -20.2982 C   0  0  0  0  0  0  0  0  0  0  0  0
   -5.7645    0.8527  -19.1363 C   0  0  0  0  0  0  0  0  0  0  0  0
   -4.8564   -0.3298  -19.3011 C   0  0  0  0  0  0  0  0  0  0  0  0
   -4.2107   -0.6005  -20.6277 C   0  0  0  0  0  0  0  0  0  0  0  0
   -4.4731    0.3113  -21.7895 C   0  0  0  0  0  0  0  0  0  0  0  0
   -8.7351    0.5864  -24.4843 C   0  0  0  0  0  0  0  0  0  0  0  0
  -10.1513    0.9014  -24.1034 C   0  0  0  0  0  0  0  0  0  0  0  0
  -10.6790    2.2961  -24.2653 C   0  0  0  0  0  0  0  0  0  0  0  0
  -12.0953    2.6111  -23.8844 N   0  0  0  0  0  0  0  0  0  0  0  0
  -12.9838    1.5313  -23.3417 C   0  0  0  0  0  0  0  0  0  0  0  0
  -12.4561    0.1365  -23.1798 C   0  0  0  0  0  0  0  0  0  0  0  0
  -13.3447   -0.9432  -22.6371 C   0  0  0  0  0  0  0  0  0  0  0  0
  -12.8170   -2.3379  -22.4752 C   0  0  0  0  0  0  0  0  0  0  0  0
  -11.4007   -2.6529  -22.8561 C   0  0  0  0  0  0  0  0  0  0  0  0
  -10.5122   -1.5732  -23.3988 C   0  0  0  0  0  0  0  0  0  0  0  0
  -11.0399   -0.1785  -23.5607 C   0  0  0  0  0  0  0  0  0  0  0  0
  1  2  2  0  0  0
  2 15  1  0  0  0
 15 16  1  0  0  0
 16 17  2  0  0  0
 17 18  1  0  0  0
 18 19  2  0  0  0
 19 20  1  0  0  0
 20 21  2  0  0  0
 21 22  1  0  0  0
 22 23  2  0  0  0
 23 24  1  0  0  0
 24 25  2  0  0  0
  2  3  1  0  0  0
  3  4  1  0  0  0
  4  5  1  0  0  0
  5  6  1  0  0  0
  6  7  1  0  0  0
  7  8  1  0  0  0
  8  9  1  0  0  0
  9 10  2  0  0  0
 10 11  1  0  0  0
 11 12  2  0  0  0
 12 13  1  0  0  0
 13 14  2  0  0  0
 25 16  1  0  0  0
  8  3  1  0  0  0
 14  9  1  0  0  0
 25 20  1  0  0  0
M  END
> <minimizedAffinity>
-3.29895

> <CNNscore>
0.4243348837

> <CNNaffinity>
5.1318120956

> <CNN_VS>
2.1776068211

> <CNNaffinity_variance>
0.3787365854

$$$$



 25 28  0  0  0  0  0  0  0  0999 V2000
   -9.1233    2.0658  -23.1874 O   0  0  0  0  0  0  0  0  0  0  0  0
   -9.0183    0.5803  -23.0079 C   0  0  0  0  0  0  0  0  0  0  0  0
  -10.2568   -0.2659  -23.0202 N   0  0  0  0  0  0  0  0  0  0  0  0
  -10.1519   -1.7514  -22.8407 C   0  0  0  0  0  0  0  0  0  0  0  0
  -11.3904   -2.5977  -22.8530 C   0  0  0  0  0  0  0  0  0  0  0  0
  -12.7337   -1.9584  -23.0448 C   0  0  0  0  0  0  0  0  0  0  0  0
  -12.8386   -0.4728  -23.2244 C   0  0  0  0  0  0  0  0  0  0  0  0
  -11.6001    0.3734  -23.2121 C   0  0  0  0  0  0  0  0  0  0  0  0
  -11.7050    1.8589  -23.3916 C   0  0  0  0  0  0  0  0  0  0  0  0
  -11.2322    2.4957  -24.6647 C   0  0  0  0  0  0  0  0  0  0  0  0
  -11.3371    3.9812  -24.8443 C   0  0  0  0  0  0  0  0  0  0  0  0
  -11.9147    4.8299  -23.7507 C   0  0  0  0  0  0  0  0  0  0  0  0
  -12.3875    4.1931  -22.4775 C   0  0  0  0  0  0  0  0  0  0  0  0
  -12.2826    2.7076  -22.2979 C   0  0  0  0  0  0  0  0  0  0  0  0
   -7.6750   -0.0590  -22.8161 C   0  0  0  0  0  0  0  0  0  0  0  0
   -7.0920   -0.1806  -21.4394 C   0  0  0  0  0  0  0  0  0  0  0  0
   -7.7794   -1.0223  -20.4055 C   0  0  0  0  0  0  0  0  0  0  0  0
   -7.1964   -1.1439  -19.0288 N   0  0  0  0  0  0  0  0  0  0  0  0
   -5.9260   -0.4238  -18.6860 C   0  0  0  0  0  0  0  0  0  0  0  0
   -5.2385    0.4180  -19.7199 C   0  0  0  0  0  0  0  0  0  0  0  0
   -3.9682    1.1380  -19.3771 C   0  0  0  0  0  0  0  0  0  0  0  0
   -3.2808    1.9797  -20.4111 C   0  0  0  0  0  0  0  0  0  0  0  0
   -3.8638    2.1013  -21.7878 C   0  0  0  0  0  0  0  0  0  0  0  0
   -5.1342    1.3812  -22.1305 C   0  0  0  0  0  0  0  0  0  0  0  0
   -5.8216    0.5396  -21.0966 C   0  0  0  0  0  0  0  0  0  0  0  0
  1  2  2  0  0  0
  2 15  1  0  0  0
 15 16  1  0  0  0
 16 17  2  0  0  0
 17 18  1  0  0  0
 18 19  2  0  0  0
 19 20  1  0  0  0
 20 21  2  0  0  0
 21 22  1  0  0  0
 22 23  2  0  0  0
 23 24  1  0  0  0
 24 25  2  0  0  0
  2  3  1  0  0  0
  3  4  1  0  0  0
  4  5  1  0  0  0
  5  6  1  0  0  0
  6  7  1  0  0  0
  7  8  1  0  0  0
  8  9  1  0  0  0
  9 10  2  0  0  0
 10 11  1  0  0  0
 11 12  2  0  0  0
 12 13  1  0  0  0
 13 14  2  0  0  0
 25 16  1  0  0  0
  8  3  1  0  0  0
 14  9  1  0  0  0
 25 20  1  0  0  0
M  END
> <minimizedAffinity>
-7.05162

> <CNNscore>
0.3874456286

> <CNNaffinity>
5.2799024582

> <CNN_VS>
2.0456750393

> <CNNaffinity_variance>
0.0795674250

$$$$



 25 28  0  0  0  0  0  0  0  0999 V2000
   -6.3297   -3.5921  -22.0036 O   0  0  0  0  0  0  0  0  0  0  0  0
   -7.5369   -2.7881  -22.3863 C   0  0  0  0  0  0  0  0  0  0  0  0
   -8.5119   -3.3300  -23.3890 N   0  0  0  0  0  0  0  0  0  0  0  0
   -9.7190   -2.5260  -23.7718 C   0  0  0  0  0  0  0  0  0  0  0  0
  -10.6941   -3.0680  -24.7745 C   0  0  0  0  0  0  0  0  0  0  0  0
  -10.4621   -4.4140  -25.3945 C   0  0  0  0  0  0  0  0  0  0  0  0
   -9.2550   -5.2181  -25.0118 C   0  0  0  0  0  0  0  0  0  0  0  0
   -8.2799   -4.6761  -24.0091 C   0  0  0  0  0  0  0  0  0  0  0  0
   -7.0728   -5.4801  -23.6264 C   0  0  0  0  0  0  0  0  0  0  0  0
   -5.8204   -5.3895  -24.4468 C   0  0  0  0  0  0  0  0  0  0  0  0
   -4.6132   -6.1935  -24.0641 C   0  0  0  0  0  0  0  0  0  0  0  0
   -4.6586   -7.0881  -22.8610 C   0  0  0  0  0  0  0  0  0  0  0  0
   -5.9111   -7.1787  -22.0405 C   0  0  0  0  0  0  0  0  0  0  0  0
   -7.1181   -6.3747  -22.4232 C   0  0  0  0  0  0  0  0  0  0  0  0
   -7.7688   -1.4421  -21.7663 C   0  0  0  0  0  0  0  0  0  0  0  0
   -6.8602   -0.9506  -20.6787 C   0  0  0  0  0  0  0  0  0  0  0  0
   -7.2039   -1.2067  -19.2413 C   0  0  0  0  0  0  0  0  0  0  0  0
   -6.2952   -0.7152  -18.1538 N   0  0  0  0  0  0  0  0  0  0  0  0
   -5.0428    0.0323  -18.5037 C   0  0  0  0  0  0  0  0  0  0  0  0
   -4.6990    0.2885  -19.9412 C   0  0  0  0  0  0  0  0  0  0  0  0
   -3.4465    1.0360  -20.2910 C   0  0  0  0  0  0  0  0  0  0  0  0
   -3.1027    1.2921  -21.7284 C   0  0  0  0  0  0  0  0  0  0  0  0
   -4.0114    0.8007  -22.8160 C   0  0  0  0  0  0  0  0  0  0  0  0
   -5.2639    0.0531  -22.4661 C   0  0  0  0  0  0  0  0  0  0  0  0
   -5.6076   -0.2030  -21.0287 C   0  0  0  0  0  0  0  0  0  0  0  0
  1  2  2  0  0  0
  2 15  1  0  0  0
 15 16  1  0  0  0
 16 17  2  0  0  0
 17 18  1  0  0  0
 18 19  2  0  0  0
 19 20  1  0  0  0
 20 21  2  0  0  0
 21 22  1  0  0  0
 22 23  2  0  0  0
 23 24  1  0  0  0
 24 25  2  0  0  0
  2  3  1  0  0  0
  3  4  1  0  0  0
  4  5  1  0  0  0
  5  6  1  0  0  0
  6  7  1  0  0  0
  7  8  1  0  0  0
  8  9  1  0  0  0
  9 10  2  0  0  0
 10 11  1  0  0  0
 11 12  2  0  0  0
 12 13  1  0  0  0
 13 14  2  0  0  0
 25 16  1  0  0  0
  8  3  1  0  0  0
 14  9  1  0  0  0
 25 20  1  0  0  0
M  END
> <minimizedAffinity>
-7.24850

> <CNNscore>
0.3871124685

> <CNNaffinity>
5.2611045837

> <CNN_VS>
2.0366392136

> <CNNaffinity_variance>
0.3530156314

$$$$



 25 28  0  0  0  0  0  0  0  0999 V2000
   -6.3189   -3.5926  -22.0111 O   0  0  0  0  0  0  0  0  0  0  0  0
   -7.5261   -2.7881  -22.3927 C   0  0  0  0  0  0  0  0  0  0  0  0
   -8.5050   -3.3319  -23.3907 N   0  0  0  0  0  0  0  0  0  0  0  0
   -9.7121   -2.5275  -23.7723 C   0  0  0  0  0  0  0  0  0  0  0  0
  -10.6910   -3.0713  -24.7702 C   0  0  0  0  0  0  0  0  0  0  0  0
  -10.4629   -4.4196  -25.3866 C   0  0  0  0  0  0  0  0  0  0  0  0
   -9.2557   -5.2242  -25.0050 C   0  0  0  0  0  0  0  0  0  0  0  0
   -8.2768   -4.6803  -24.0070 C   0  0  0  0  0  0  0  0  0  0  0  0
   -7.0697   -5.4848  -23.6254 C   0  0  0  0  0  0  0  0  0  0  0  0
   -7.1119   -6.3737  -22.4179 C   0  0  0  0  0  0  0  0  0  0  0  0
   -5.9048   -7.1783  -22.0362 C   0  0  0  0  0  0  0  0  0  0  0  0
   -4.6555   -7.0938  -22.8621 C   0  0  0  0  0  0  0  0  0  0  0  0
   -4.6133   -6.2049  -24.0696 C   0  0  0  0  0  0  0  0  0  0  0  0
   -5.8204   -5.4004  -24.4513 C   0  0  0  0  0  0  0  0  0  0  0  0
   -7.7542   -1.4398  -21.7764 C   0  0  0  0  0  0  0  0  0  0  0  0
   -6.8418   -0.9463  -20.6929 C   0  0  0  0  0  0  0  0  0  0  0  0
   -7.1809   -1.1993  -19.2538 C   0  0  0  0  0  0  0  0  0  0  0  0
   -6.2685   -0.7058  -18.1703 N   0  0  0  0  0  0  0  0  0  0  0  0
   -5.0170    0.0407  -18.5258 C   0  0  0  0  0  0  0  0  0  0  0  0
   -4.6779    0.2937  -19.9650 C   0  0  0  0  0  0  0  0  0  0  0  0
   -3.4264    1.0402  -20.3205 C   0  0  0  0  0  0  0  0  0  0  0  0
   -3.0873    1.2933  -21.7596 C   0  0  0  0  0  0  0  0  0  0  0  0
   -3.9997    0.7998  -22.8431 C   0  0  0  0  0  0  0  0  0  0  0  0
   -5.2512    0.0533  -22.4876 C   0  0  0  0  0  0  0  0  0  0  0  0
   -5.5903   -0.1997  -21.0485 C   0  0  0  0  0  0  0  0  0  0  0  0
  1  2  2  0  0  0
  2 15  1  0  0  0
 15 16  1  0  0  0
 16 17  2  0  0  0
 17 18  1  0  0  0
 18 19  2  0  0  0
 19 20  1  0  0  0
 20 21  2  0  0  0
 21 22  1  0  0  0
 22 23  2  0  0  0
 23 24  1  0  0  0
 24 25  2  0  0  0
  2  3  1  0  0  0
  3  4  1  0  0  0
  4  5  1  0  0  0
  5  6  1  0  0  0
  6  7  1  0  0  0
  7  8  1  0  0  0
  8  9  1  0  0  0
  9 10  2  0  0  0
 10 11  1  0  0  0
 11 12  2  0  0  0
 12 13  1  0  0  0
 13 14  2  0  0  0
 25 16  1  0  0  0
  8  3  1  0  0  0
 14  9  1  0  0  0
 25 20  1  0  0  0
M  END
> <minimizedAffinity>
-7.24769

> <CNNscore>
0.3818106353

> <CNNaffinity>
5.2545957565

> <CNN_VS>
2.0062606335

> <CNNaffinity_variance>
0.3530945480

$$$$



 25 28  0  0  0  0  0  0  0  0999 V2000
   -8.9233   -1.7633  -22.2549 O   0  0  0  0  0  0  0  0  0  0  0  0
   -7.9686   -2.8140  -22.7392 C   0  0  0  0  0  0  0  0  0  0  0  0
   -8.3882   -3.7693  -23.8169 N   0  0  0  0  0  0  0  0  0  0  0  0
   -7.4336   -4.8200  -24.3012 C   0  0  0  0  0  0  0  0  0  0  0  0
   -7.8532   -5.7752  -25.3789 C   0  0  0  0  0  0  0  0  0  0  0  0
   -9.2275   -5.6797  -25.9723 C   0  0  0  0  0  0  0  0  0  0  0  0
  -10.1822   -4.6289  -25.4880 C   0  0  0  0  0  0  0  0  0  0  0  0
   -9.7626   -3.6737  -24.4103 C   0  0  0  0  0  0  0  0  0  0  0  0
  -10.7172   -2.6230  -23.9260 C   0  0  0  0  0  0  0  0  0  0  0  0
  -11.8276   -2.9935  -22.9881 C   0  0  0  0  0  0  0  0  0  0  0  0
  -12.7823   -1.9428  -22.5037 C   0  0  0  0  0  0  0  0  0  0  0  0
  -12.6266   -0.5215  -22.9573 C   0  0  0  0  0  0  0  0  0  0  0  0
  -11.5161   -0.1510  -23.8953 C   0  0  0  0  0  0  0  0  0  0  0  0
  -10.5615   -1.2017  -24.3796 C   0  0  0  0  0  0  0  0  0  0  0  0
   -6.5943   -2.9095  -22.1458 C   0  0  0  0  0  0  0  0  0  0  0  0
   -5.6901   -1.7127  -22.1513 C   0  0  0  0  0  0  0  0  0  0  0  0
   -5.0913   -1.2311  -23.4395 C   0  0  0  0  0  0  0  0  0  0  0  0
   -4.1871   -0.0342  -23.4450 N   0  0  0  0  0  0  0  0  0  0  0  0
   -3.8818    0.6810  -22.1624 C   0  0  0  0  0  0  0  0  0  0  0  0
   -4.4806    0.1994  -20.8741 C   0  0  0  0  0  0  0  0  0  0  0  0
   -4.1753    0.9146  -19.5915 C   0  0  0  0  0  0  0  0  0  0  0  0
   -4.7741    0.4330  -18.3034 C   0  0  0  0  0  0  0  0  0  0  0  0
   -5.6783   -0.7638  -18.2978 C   0  0  0  0  0  0  0  0  0  0  0  0
   -5.9836   -1.4790  -19.5804 C   0  0  0  0  0  0  0  0  0  0  0  0
   -5.3848   -0.9974  -20.8686 C   0  0  0  0  0  0  0  0  0  0  0  0
  1  2  2  0  0  0
  2 15  1  0  0  0
 15 16  1  0  0  0
 16 17  2  0  0  0
 17 18  1  0  0  0
 18 19  2  0  0  0
 19 20  1  0  0  0
 20 21  2  0  0  0
 21 22  1  0  0  0
 22 23  2  0  0  0
 23 24  1  0  0  0
 24 25  2  0  0  0
  2  3  1  0  0  0
  3  4  1  0  0  0
  4  5  1  0  0  0
  5  6  1  0  0  0
  6  7  1  0  0  0
  7  8  1  0  0  0
  8  9  1  0  0  0
  9 10  2  0  0  0
 10 11  1  0  0  0
 11 12  2  0  0  0
 12 13  1  0  0  0
 13 14  2  0  0  0
 25 16  1  0  0  0
  8  3  1  0  0  0
 14  9  1  0  0  0
 25 20  1  0  0  0
M  END
> <minimizedAffinity>
-6.65076

> <CNNscore>
0.3738048673

> <CNNaffinity>
5.2415490150

> <CNN_VS>
1.9593164921

> <CNNaffinity_variance>
0.0781505033

$$$$
