


 25 28  0  0  0  0  0  0  0  0999 V2000
    7.6405   -2.7364   26.7558 O   0  0  0  0  0  0  0  0  0  0  0  0
    7.5359   -3.7940   25.6972 C   0  0  0  0  0  0  0  0  0  0  0  0
    6.2256   -4.4809   25.4501 N   0  0  0  0  0  0  0  0  0  0  0  0
    6.1210   -5.5385   24.3915 C   0  0  0  0  0  0  0  0  0  0  0  0
    4.8107   -6.2254   24.1445 C   0  0  0  0  0  0  0  0  0  0  0  0
    3.6049   -5.8549   24.9560 C   0  0  0  0  0  0  0  0  0  0  0  0
    3.7094   -4.7973   26.0147 C   0  0  0  0  0  0  0  0  0  0  0  0
    5.0197   -4.1103   26.2617 C   0  0  0  0  0  0  0  0  0  0  0  0
    5.1243   -3.0528   27.3203 C   0  0  0  0  0  0  0  0  0  0  0  0
    4.8590   -1.6174   26.9752 C   0  0  0  0  0  0  0  0  0  0  0  0
    4.9636   -0.5598   28.0338 C   0  0  0  0  0  0  0  0  0  0  0  0
    5.3334   -0.9377   29.4375 C   0  0  0  0  0  0  0  0  0  0  0  0
    5.5986   -2.3732   29.7826 C   0  0  0  0  0  0  0  0  0  0  0  0
    5.4941   -3.4307   28.7240 C   0  0  0  0  0  0  0  0  0  0  0  0
    8.7418   -4.1645   24.8856 C   0  0  0  0  0  0  0  0  0  0  0  0
    9.5153   -3.1015   24.1634 C   0  0  0  0  0  0  0  0  0  0  0  0
    8.9414   -2.4601   22.9350 C   0  0  0  0  0  0  0  0  0  0  0  0
    9.7150   -1.3971   22.2128 N   0  0  0  0  0  0  0  0  0  0  0  0
   11.0625   -0.9755   22.7190 C   0  0  0  0  0  0  0  0  0  0  0  0
   11.6365   -1.6169   23.9475 C   0  0  0  0  0  0  0  0  0  0  0  0
   12.9841   -1.1953   24.4538 C   0  0  0  0  0  0  0  0  0  0  0  0
   13.5580   -1.8367   25.6822 C   0  0  0  0  0  0  0  0  0  0  0  0
   12.7844   -2.8997   26.4045 C   0  0  0  0  0  0  0  0  0  0  0  0
   11.4369   -3.3213   25.8982 C   0  0  0  0  0  0  0  0  0  0  0  0
   10.8630   -2.6799   24.6697 C   0  0  0  0  0  0  0  0  0  0  0  0
  1  2  2  0  0  0
  2 15  1  0  0  0
 15 16  1  0  0  0
 16 17  2  0  0  0
 17 18  1  0  0  0
 18 19  2  0  0  0
 19 20  1  0  0  0
 20 21  2  0  0  0
 21 22  1  0  0  0
 22 23  2  0  0  0
 23 24  1  0  0  0
 24 25  2  0  0  0
  2  3  1  0  0  0
  3  4  1  0  0  0
  4  5  1  0  0  0
  5  6  1  0  0  0
  6  7  1  0  0  0
  7  8  1  0  0  0
  8  9  1  0  0  0
  9 10  2  0  0  0
 10 11  1  0  0  0
 11 12  2  0  0  0
 12 13  1  0  0  0
 13 14  2  0  0  0
 25 16  1  0  0  0
  8  3  1  0  0  0
 14  9  1  0  0  0
 25 20  1  0  0  0
M  END
> <minimizedAffinity>
-6.86402

> <CNNscore>
0.6341312528

> <CNNaffinity>
5.8568015099

> <CNN_VS>
3.7139809132

> <CNNaffinity_variance>
0.2001813650

$$$$



 25 28  0  0  0  0  0  0  0  0999 V2000
    7.4932   -2.6609   26.5777 O   0  0  0  0  0  0  0  0  0  0  0  0
    7.4552   -3.7019   25.4984 C   0  0  0  0  0  0  0  0  0  0  0  0
    6.2348   -4.5562   25.3230 N   0  0  0  0  0  0  0  0  0  0  0  0
    6.1967   -5.5971   24.2437 C   0  0  0  0  0  0  0  0  0  0  0  0
    4.9763   -6.4514   24.0683 C   0  0  0  0  0  0  0  0  0  0  0  0
    3.7939   -6.2648   24.9723 C   0  0  0  0  0  0  0  0  0  0  0  0
    3.8319   -5.2238   26.0516 C   0  0  0  0  0  0  0  0  0  0  0  0
    5.0523   -4.3695   26.2270 C   0  0  0  0  0  0  0  0  0  0  0  0
    5.0904   -3.3286   27.3063 C   0  0  0  0  0  0  0  0  0  0  0  0
    5.5529   -3.6947   28.6854 C   0  0  0  0  0  0  0  0  0  0  0  0
    5.5909   -2.6537   29.7648 C   0  0  0  0  0  0  0  0  0  0  0  0
    5.1665   -1.2466   29.4650 C   0  0  0  0  0  0  0  0  0  0  0  0
    4.7040   -0.8805   28.0858 C   0  0  0  0  0  0  0  0  0  0  0  0
    4.6660   -1.9214   27.0065 C   0  0  0  0  0  0  0  0  0  0  0  0
    8.6375   -3.8885   24.5944 C   0  0  0  0  0  0  0  0  0  0  0  0
   10.0118   -3.5236   25.0721 C   0  0  0  0  0  0  0  0  0  0  0  0
   10.5513   -4.1262   26.3353 C   0  0  0  0  0  0  0  0  0  0  0  0
   11.9256   -3.7613   26.8130 N   0  0  0  0  0  0  0  0  0  0  0  0
   12.7604   -2.7938   26.0275 C   0  0  0  0  0  0  0  0  0  0  0  0
   12.2209   -2.1911   24.7642 C   0  0  0  0  0  0  0  0  0  0  0  0
   13.0556   -1.2236   23.9787 C   0  0  0  0  0  0  0  0  0  0  0  0
   12.5161   -0.6210   22.7155 C   0  0  0  0  0  0  0  0  0  0  0  0
   11.1418   -0.9859   22.2378 C   0  0  0  0  0  0  0  0  0  0  0  0
   10.3070   -1.9534   23.0234 C   0  0  0  0  0  0  0  0  0  0  0  0
   10.8466   -2.5560   24.2865 C   0  0  0  0  0  0  0  0  0  0  0  0
  1  2  2  0  0  0
  2 15  1  0  0  0
 15 16  1  0  0  0
 16 17  2  0  0  0
 17 18  1  0  0  0
 18 19  2  0  0  0
 19 20  1  0  0  0
 20 21  2  0  0  0
 21 22  1  0  0  0
 22 23  2  0  0  0
 23 24  1  0  0  0
 24 25  2  0  0  0
  2  3  1  0  0  0
  3  4  1  0  0  0
  4  5  1  0  0  0
  5  6  1  0  0  0
  6  7  1  0  0  0
  7  8  1  0  0  0
  8  9  1  0  0  0
  9 10  2  0  0  0
 10 11  1  0  0  0
 11 12  2  0  0  0
 12 13  1  0  0  0
 13 14  2  0  0  0
 25 16  1  0  0  0
  8  3  1  0  0  0
 14  9  1  0  0  0
 25 20  1  0  0  0
M  END
> <minimizedAffinity>
-6.71159

> <CNNscore>
0.6121903062

> <CNNaffinity>
5.8598289490

> <CNN_VS>
3.5873305798

> <CNNaffinity_variance>
0.1309794635

$$$$



 25 28  0  0  0  0  0  0  0  0999 V2000
    9.0265    0.0668   22.1522 O   0  0  0  0  0  0  0  0  0  0  0  0
    7.8755   -0.5712   22.8721 C   0  0  0  0  0  0  0  0  0  0  0  0
    8.1299   -1.4644   24.0500 N   0  0  0  0  0  0  0  0  0  0  0  0
    6.9790   -2.1024   24.7699 C   0  0  0  0  0  0  0  0  0  0  0  0
    7.2334   -2.9956   25.9478 C   0  0  0  0  0  0  0  0  0  0  0  0
    8.6387   -3.2509   26.4058 C   0  0  0  0  0  0  0  0  0  0  0  0
    9.7898   -2.6129   25.6859 C   0  0  0  0  0  0  0  0  0  0  0  0
    9.5353   -1.7197   24.5080 C   0  0  0  0  0  0  0  0  0  0  0  0
   10.6863   -1.0817   23.7881 C   0  0  0  0  0  0  0  0  0  0  0  0
   11.1272    0.3034   24.1580 C   0  0  0  0  0  0  0  0  0  0  0  0
   12.2782    0.9415   23.4381 C   0  0  0  0  0  0  0  0  0  0  0  0
   12.9882    0.1943   22.3482 C   0  0  0  0  0  0  0  0  0  0  0  0
   12.5471   -1.1909   21.9783 C   0  0  0  0  0  0  0  0  0  0  0  0
   11.3962   -1.8289   22.6983 C   0  0  0  0  0  0  0  0  0  0  0  0
    6.4701   -0.3159   22.4142 C   0  0  0  0  0  0  0  0  0  0  0  0
    6.1968    0.0029   20.9741 C   0  0  0  0  0  0  0  0  0  0  0  0
    7.1600   -0.4385   19.9124 C   0  0  0  0  0  0  0  0  0  0  0  0
    6.8867   -0.1197   18.4723 N   0  0  0  0  0  0  0  0  0  0  0  0
    5.6501    0.6405   18.0941 C   0  0  0  0  0  0  0  0  0  0  0  0
    4.6868    1.0819   19.1559 C   0  0  0  0  0  0  0  0  0  0  0  0
    3.4503    1.8420   18.7777 C   0  0  0  0  0  0  0  0  0  0  0  0
    2.4871    2.2833   19.8394 C   0  0  0  0  0  0  0  0  0  0  0  0
    2.7604    1.9645   21.2795 C   0  0  0  0  0  0  0  0  0  0  0  0
    3.9970    1.2044   21.6577 C   0  0  0  0  0  0  0  0  0  0  0  0
    4.9602    0.7630   20.5959 C   0  0  0  0  0  0  0  0  0  0  0  0
  1  2  2  0  0  0
  2 15  1  0  0  0
 15 16  1  0  0  0
 16 17  2  0  0  0
 17 18  1  0  0  0
 18 19  2  0  0  0
 19 20  1  0  0  0
 20 21  2  0  0  0
 21 22  1  0  0  0
 22 23  2  0  0  0
 23 24  1  0  0  0
 24 25  2  0  0  0
  2  3  1  0  0  0
  3  4  1  0  0  0
  4  5  1  0  0  0
  5  6  1  0  0  0
  6  7  1  0  0  0
  7  8  1  0  0  0
  8  9  1  0  0  0
  9 10  2  0  0  0
 10 11  1  0  0  0
 11 12  2  0  0  0
 12 13  1  0  0  0
 13 14  2  0  0  0
 25 16  1  0  0  0
  8  3  1  0  0  0
 14  9  1  0  0  0
 25 20  1  0  0  0
M  END
> <minimizedAffinity>
-7.45916

> <CNNscore>
0.5449916720

> <CNNaffinity>
5.8170638084

> <CNN_VS>
3.1702513695

> <CNNaffinity_variance>
0.0274137016

$$$$



 25 28  0  0  0  0  0  0  0  0999 V2000
    8.5056    0.3849   22.8392 O   0  0  0  0  0  0  0  0  0  0  0  0
    9.9659    0.6969   22.6973 C   0  0  0  0  0  0  0  0  0  0  0  0
   10.4364    2.1205   22.7411 N   0  0  0  0  0  0  0  0  0  0  0  0
   11.8966    2.4326   22.5992 C   0  0  0  0  0  0  0  0  0  0  0  0
   12.3671    3.8562   22.6429 C   0  0  0  0  0  0  0  0  0  0  0  0
   11.3772    4.9678   22.8286 C   0  0  0  0  0  0  0  0  0  0  0  0
    9.9169    4.6558   22.9705 C   0  0  0  0  0  0  0  0  0  0  0  0
    9.4464    3.2322   22.9267 C   0  0  0  0  0  0  0  0  0  0  0  0
    7.9862    2.9201   23.0686 C   0  0  0  0  0  0  0  0  0  0  0  0
    7.3970    2.6907   24.4288 C   0  0  0  0  0  0  0  0  0  0  0  0
    5.9367    2.3786   24.5708 C   0  0  0  0  0  0  0  0  0  0  0  0
    5.0655    2.2960   23.3525 C   0  0  0  0  0  0  0  0  0  0  0  0
    5.6548    2.5254   21.9922 C   0  0  0  0  0  0  0  0  0  0  0  0
    7.1150    2.8375   21.8503 C   0  0  0  0  0  0  0  0  0  0  0  0
   10.9558   -0.4147   22.5117 C   0  0  0  0  0  0  0  0  0  0  0  0
   11.5171   -1.1266   23.7068 C   0  0  0  0  0  0  0  0  0  0  0  0
   12.8420   -0.7106   24.2736 C   0  0  0  0  0  0  0  0  0  0  0  0
   13.4033   -1.4225   25.4687 N   0  0  0  0  0  0  0  0  0  0  0  0
   12.6396   -2.5503   26.0969 C   0  0  0  0  0  0  0  0  0  0  0  0
   11.3146   -2.9663   25.5301 C   0  0  0  0  0  0  0  0  0  0  0  0
   10.5509   -4.0941   26.1584 C   0  0  0  0  0  0  0  0  0  0  0  0
    9.2259   -4.5101   25.5915 C   0  0  0  0  0  0  0  0  0  0  0  0
    8.6646   -3.7982   24.3964 C   0  0  0  0  0  0  0  0  0  0  0  0
    9.4283   -2.6704   23.7682 C   0  0  0  0  0  0  0  0  0  0  0  0
   10.7533   -2.2544   24.3350 C   0  0  0  0  0  0  0  0  0  0  0  0
  1  2  2  0  0  0
  2 15  1  0  0  0
 15 16  1  0  0  0
 16 17  2  0  0  0
 17 18  1  0  0  0
 18 19  2  0  0  0
 19 20  1  0  0  0
 20 21  2  0  0  0
 21 22  1  0  0  0
 22 23  2  0  0  0
 23 24  1  0  0  0
 24 25  2  0  0  0
  2  3  1  0  0  0
  3  4  1  0  0  0
  4  5  1  0  0  0
  5  6  1  0  0  0
  6  7  1  0  0  0
  7  8  1  0  0  0
  8  9  1  0  0  0
  9 10  2  0  0  0
 10 11  1  0  0  0
 11 12  2  0  0  0
 12 13  1  0  0  0
 13 14  2  0  0  0
 25 16  1  0  0  0
  8  3  1  0  0  0
 14  9  1  0  0  0
 25 20  1  0  0  0
M  END
> <minimizedAffinity>
-7.04700

> <CNNscore>
0.5394763350

> <CNNaffinity>
5.8900308609

> <CNN_VS>
3.1775321960

> <CNNaffinity_variance>
0.0399487950

$$$$



 25 28  0  0  0  0  0  0  0  0999 V2000
    7.9743   -3.6786   24.1189 O   0  0  0  0  0  0  0  0  0  0  0  0
    7.7328   -3.0990   25.4812 C   0  0  0  0  0  0  0  0  0  0  0  0
    6.5931   -3.5998   26.3180 N   0  0  0  0  0  0  0  0  0  0  0  0
    6.3515   -3.0203   27.6803 C   0  0  0  0  0  0  0  0  0  0  0  0
    5.2118   -3.5212   28.5170 C   0  0  0  0  0  0  0  0  0  0  0  0
    4.3136   -4.6015   27.9916 C   0  0  0  0  0  0  0  0  0  0  0  0
    4.5552   -5.1811   26.6293 C   0  0  0  0  0  0  0  0  0  0  0  0
    5.6949   -4.6802   25.7925 C   0  0  0  0  0  0  0  0  0  0  0  0
    5.9365   -5.2598   24.4302 C   0  0  0  0  0  0  0  0  0  0  0  0
    5.2977   -4.6351   23.2254 C   0  0  0  0  0  0  0  0  0  0  0  0
    5.5392   -5.2146   21.8631 C   0  0  0  0  0  0  0  0  0  0  0  0
    6.4196   -6.4188   21.7057 C   0  0  0  0  0  0  0  0  0  0  0  0
    7.0585   -7.0435   22.9106 C   0  0  0  0  0  0  0  0  0  0  0  0
    6.8169   -6.4640   24.2728 C   0  0  0  0  0  0  0  0  0  0  0  0
    8.6309   -2.0187   26.0067 C   0  0  0  0  0  0  0  0  0  0  0  0
   10.1038   -2.0654   25.7263 C   0  0  0  0  0  0  0  0  0  0  0  0
   10.9590   -3.1097   26.3804 C   0  0  0  0  0  0  0  0  0  0  0  0
   12.4318   -3.1564   26.1000 N   0  0  0  0  0  0  0  0  0  0  0  0
   13.0494   -2.1588   25.1655 C   0  0  0  0  0  0  0  0  0  0  0  0
   12.1941   -1.1144   24.5113 C   0  0  0  0  0  0  0  0  0  0  0  0
   12.8117   -0.1168   23.5768 C   0  0  0  0  0  0  0  0  0  0  0  0
   11.9564    0.9275   22.9226 C   0  0  0  0  0  0  0  0  0  0  0  0
   10.4836    0.9742   23.2030 C   0  0  0  0  0  0  0  0  0  0  0  0
    9.8660   -0.0234   24.1376 C   0  0  0  0  0  0  0  0  0  0  0  0
   10.7213   -1.0677   24.7917 C   0  0  0  0  0  0  0  0  0  0  0  0
  1  2  2  0  0  0
  2 15  1  0  0  0
 15 16  1  0  0  0
 16 17  2  0  0  0
 17 18  1  0  0  0
 18 19  2  0  0  0
 19 20  1  0  0  0
 20 21  2  0  0  0
 21 22  1  0  0  0
 22 23  2  0  0  0
 23 24  1  0  0  0
 24 25  2  0  0  0
  2  3  1  0  0  0
  3  4  1  0  0  0
  4  5  1  0  0  0
  5  6  1  0  0  0
  6  7  1  0  0  0
  7  8  1  0  0  0
  8  9  1  0  0  0
  9 10  2  0  0  0
 10 11  1  0  0  0
 11 12  2  0  0  0
 12 13  1  0  0  0
 13 14  2  0  0  0
 25 16  1  0  0  0
  8  3  1  0  0  0
 14  9  1  0  0  0
 25 20  1  0  0  0
M  END
> <minimizedAffinity>
-7.25986

> <CNNscore>
0.5392135382

> <CNNaffinity>
5.6976447105

> <CNN_VS>
3.0722472668

> <CNNaffinity_variance>
0.0748138651

$$$$



 25 28  0  0  0  0  0  0  0  0999 V2000
    7.9464   -3.0778   23.1384 O   0  0  0  0  0  0  0  0  0  0  0  0
    7.5970   -1.9932   24.1140 C   0  0  0  0  0  0  0  0  0  0  0  0
    6.4281   -2.1641   25.0384 N   0  0  0  0  0  0  0  0  0  0  0  0
    6.0786   -1.0796   26.0140 C   0  0  0  0  0  0  0  0  0  0  0  0
    4.9097   -1.2505   26.9384 C   0  0  0  0  0  0  0  0  0  0  0  0
    4.0903   -2.5058   26.8872 C   0  0  0  0  0  0  0  0  0  0  0  0
    4.4398   -3.5903   25.9116 C   0  0  0  0  0  0  0  0  0  0  0  0
    5.6086   -3.4195   24.9872 C   0  0  0  0  0  0  0  0  0  0  0  0
    5.9581   -4.5040   24.0117 C   0  0  0  0  0  0  0  0  0  0  0  0
    6.9149   -5.5892   24.4077 C   0  0  0  0  0  0  0  0  0  0  0  0
    7.2644   -6.6737   23.4321 C   0  0  0  0  0  0  0  0  0  0  0  0
    6.6571   -6.6730   22.0606 C   0  0  0  0  0  0  0  0  0  0  0  0
    5.7003   -5.5877   21.6646 C   0  0  0  0  0  0  0  0  0  0  0  0
    5.3508   -4.5032   22.6401 C   0  0  0  0  0  0  0  0  0  0  0  0
    8.4164   -0.7379   24.1652 C   0  0  0  0  0  0  0  0  0  0  0  0
    9.9097   -0.8211   24.2796 C   0  0  0  0  0  0  0  0  0  0  0  0
   10.7759    0.1113   23.4858 C   0  0  0  0  0  0  0  0  0  0  0  0
   12.2692    0.0281   23.6002 N   0  0  0  0  0  0  0  0  0  0  0  0
   12.8963   -0.9876   24.5085 C   0  0  0  0  0  0  0  0  0  0  0  0
   12.0301   -1.9201   25.3024 C   0  0  0  0  0  0  0  0  0  0  0  0
   12.6572   -2.9358   26.2107 C   0  0  0  0  0  0  0  0  0  0  0  0
   11.7911   -3.8683   27.0045 C   0  0  0  0  0  0  0  0  0  0  0  0
   10.2978   -3.7850   26.8901 C   0  0  0  0  0  0  0  0  0  0  0  0
    9.6706   -2.7693   25.9818 C   0  0  0  0  0  0  0  0  0  0  0  0
   10.5368   -1.8369   25.1880 C   0  0  0  0  0  0  0  0  0  0  0  0
  1  2  2  0  0  0
  2 15  1  0  0  0
 15 16  1  0  0  0
 16 17  2  0  0  0
 17 18  1  0  0  0
 18 19  2  0  0  0
 19 20  1  0  0  0
 20 21  2  0  0  0
 21 22  1  0  0  0
 22 23  2  0  0  0
 23 24  1  0  0  0
 24 25  2  0  0  0
  2  3  1  0  0  0
  3  4  1  0  0  0
  4  5  1  0  0  0
  5  6  1  0  0  0
  6  7  1  0  0  0
  7  8  1  0  0  0
  8  9  1  0  0  0
  9 10  2  0  0  0
 10 11  1  0  0  0
 11 12  2  0  0  0
 12 13  1  0  0  0
 13 14  2  0  0  0
 25 16  1  0  0  0
  8  3  1  0  0  0
 14  9  1  0  0  0
 25 20  1  0  0  0
M  END
> <minimizedAffinity>
-6.86474

> <CNNscore>
0.5329806209

> <CNNaffinity>
5.7722692490

> <CNN_VS>
3.0765075684

> <CNNaffinity_variance>
0.0914899930

$$$$



 25 28  0  0  0  0  0  0  0  0999 V2000
    7.7320   -0.0202   22.5946 O   0  0  0  0  0  0  0  0  0  0  0  0
    9.2313    0.0253   22.5796 C   0  0  0  0  0  0  0  0  0  0  0  0
    9.9429    1.3408   22.6952 N   0  0  0  0  0  0  0  0  0  0  0  0
   11.4421    1.3864   22.6802 C   0  0  0  0  0  0  0  0  0  0  0  0
   12.1536    2.7018   22.7959 C   0  0  0  0  0  0  0  0  0  0  0  0
   11.3659    3.9716   22.9266 C   0  0  0  0  0  0  0  0  0  0  0  0
    9.8666    3.9261   22.9416 C   0  0  0  0  0  0  0  0  0  0  0  0
    9.1551    2.6106   22.8259 C   0  0  0  0  0  0  0  0  0  0  0  0
    7.6559    2.5650   22.8409 C   0  0  0  0  0  0  0  0  0  0  0  0
    6.9227    2.4294   24.1424 C   0  0  0  0  0  0  0  0  0  0  0  0
    5.4234    2.3837   24.1575 C   0  0  0  0  0  0  0  0  0  0  0  0
    4.6574    2.4737   22.8710 C   0  0  0  0  0  0  0  0  0  0  0  0
    5.3907    2.6093   21.5694 C   0  0  0  0  0  0  0  0  0  0  0  0
    6.8899    2.6550   21.5544 C   0  0  0  0  0  0  0  0  0  0  0  0
   10.0190   -1.2445   22.4489 C   0  0  0  0  0  0  0  0  0  0  0  0
    9.9474   -2.2857   23.5262 C   0  0  0  0  0  0  0  0  0  0  0  0
    8.7480   -3.1811   23.6253 C   0  0  0  0  0  0  0  0  0  0  0  0
    8.6764   -4.2224   24.7026 N   0  0  0  0  0  0  0  0  0  0  0  0
    9.8041   -4.3683   25.6809 C   0  0  0  0  0  0  0  0  0  0  0  0
   11.0035   -3.4729   25.5818 C   0  0  0  0  0  0  0  0  0  0  0  0
   12.1312   -3.6188   26.5600 C   0  0  0  0  0  0  0  0  0  0  0  0
   13.3305   -2.7234   26.4610 C   0  0  0  0  0  0  0  0  0  0  0  0
   13.4022   -1.6821   25.3836 C   0  0  0  0  0  0  0  0  0  0  0  0
   12.2745   -1.5362   24.4054 C   0  0  0  0  0  0  0  0  0  0  0  0
   11.0751   -2.4316   24.5045 C   0  0  0  0  0  0  0  0  0  0  0  0
  1  2  2  0  0  0
  2 15  1  0  0  0
 15 16  1  0  0  0
 16 17  2  0  0  0
 17 18  1  0  0  0
 18 19  2  0  0  0
 19 20  1  0  0  0
 20 21  2  0  0  0
 21 22  1  0  0  0
 22 23  2  0  0  0
 23 24  1  0  0  0
 24 25  2  0  0  0
  2  3  1  0  0  0
  3  4  1  0  0  0
  4  5  1  0  0  0
  5  6  1  0  0  0
  6  7  1  0  0  0
  7  8  1  0  0  0
  8  9  1  0  0  0
  9 10  2  0  0  0
 10 11  1  0  0  0
 11 12  2  0  0  0
 12 13  1  0  0  0
 13 14  2  0  0  0
 25 16  1  0  0  0
  8  3  1  0  0  0
 14  9  1  0  0  0
 25 20  1  0  0  0
M  END
> <minimizedAffinity>
-7.43689

> <CNNscore>
0.5315565467

> <CNNaffinity>
5.8401665688

> <CNN_VS>
3.1043787003

> <CNNaffinity_variance>
0.0235732384

$$$$



 25 28  0  0  0  0  0  0  0  0999 V2000
    8.9906   -1.7038   21.7873 O   0  0  0  0  0  0  0  0  0  0  0  0
   10.2142   -0.9608   22.2355 C   0  0  0  0  0  0  0  0  0  0  0  0
   10.1408    0.5135   22.5019 N   0  0  0  0  0  0  0  0  0  0  0  0
   11.3643    1.2565   22.9502 C   0  0  0  0  0  0  0  0  0  0  0  0
   11.2909    2.7309   23.2166 C   0  0  0  0  0  0  0  0  0  0  0  0
    9.9939    3.4622   23.0348 C   0  0  0  0  0  0  0  0  0  0  0  0
    8.7703    2.7192   22.5865 C   0  0  0  0  0  0  0  0  0  0  0  0
    8.8437    1.2449   22.3201 C   0  0  0  0  0  0  0  0  0  0  0  0
    7.6202    0.5019   21.8719 C   0  0  0  0  0  0  0  0  0  0  0  0
    6.7058   -0.1182   22.8864 C   0  0  0  0  0  0  0  0  0  0  0  0
    5.4822   -0.8613   22.4382 C   0  0  0  0  0  0  0  0  0  0  0  0
    5.1732   -0.9842   20.9755 C   0  0  0  0  0  0  0  0  0  0  0  0
    6.0877   -0.3640   19.9610 C   0  0  0  0  0  0  0  0  0  0  0  0
    7.3112    0.3790   20.4092 C   0  0  0  0  0  0  0  0  0  0  0  0
   11.5111   -1.6921   22.4173 C   0  0  0  0  0  0  0  0  0  0  0  0
   11.9626   -2.0881   23.7918 C   0  0  0  0  0  0  0  0  0  0  0  0
   13.3898   -1.8775   24.2022 C   0  0  0  0  0  0  0  0  0  0  0  0
   13.8413   -2.2735   25.5768 N   0  0  0  0  0  0  0  0  0  0  0  0
   12.8655   -2.8802   26.5409 C   0  0  0  0  0  0  0  0  0  0  0  0
   11.4381   -3.0909   26.1306 C   0  0  0  0  0  0  0  0  0  0  0  0
   10.4623   -3.6975   27.0947 C   0  0  0  0  0  0  0  0  0  0  0  0
    9.0350   -3.9082   26.6843 C   0  0  0  0  0  0  0  0  0  0  0  0
    8.5836   -3.5122   25.3098 C   0  0  0  0  0  0  0  0  0  0  0  0
    9.5594   -2.9055   24.3456 C   0  0  0  0  0  0  0  0  0  0  0  0
   10.9867   -2.6948   24.7560 C   0  0  0  0  0  0  0  0  0  0  0  0
  1  2  2  0  0  0
  2 15  1  0  0  0
 15 16  1  0  0  0
 16 17  2  0  0  0
 17 18  1  0  0  0
 18 19  2  0  0  0
 19 20  1  0  0  0
 20 21  2  0  0  0
 21 22  1  0  0  0
 22 23  2  0  0  0
 23 24  1  0  0  0
 24 25  2  0  0  0
  2  3  1  0  0  0
  3  4  1  0  0  0
  4  5  1  0  0  0
  5  6  1  0  0  0
  6  7  1  0  0  0
  7  8  1  0  0  0
  8  9  1  0  0  0
  9 10  2  0  0  0
 10 11  1  0  0  0
 11 12  2  0  0  0
 12 13  1  0  0  0
 13 14  2  0  0  0
 25 16  1  0  0  0
  8  3  1  0  0  0
 14  9  1  0  0  0
 25 20  1  0  0  0
M  END
> <minimizedAffinity>
-7.59187

> <CNNscore>
0.5192767978

> <CNNaffinity>
5.6464796066

> <CNN_VS>
2.9320857525

> <CNNaffinity_variance>
0.4671530128

$$$$



 25 28  0  0  0  0  0  0  0  0999 V2000
    7.6547   -3.5594   24.1150 O   0  0  0  0  0  0  0  0  0  0  0  0
    7.3355   -3.0270   25.4806 C   0  0  0  0  0  0  0  0  0  0  0  0
    6.2653   -3.6760   26.3072 N   0  0  0  0  0  0  0  0  0  0  0  0
    5.9461   -3.1437   27.6728 C   0  0  0  0  0  0  0  0  0  0  0  0
    4.8759   -3.7927   28.4995 C   0  0  0  0  0  0  0  0  0  0  0  0
    4.1248   -4.9740   27.9606 C   0  0  0  0  0  0  0  0  0  0  0  0
    4.4440   -5.5063   26.5950 C   0  0  0  0  0  0  0  0  0  0  0  0
    5.5142   -4.8574   25.7683 C   0  0  0  0  0  0  0  0  0  0  0  0
    5.8334   -5.3897   24.4028 C   0  0  0  0  0  0  0  0  0  0  0  0
    5.1753   -4.7948   23.1933 C   0  0  0  0  0  0  0  0  0  0  0  0
    5.4945   -5.3271   21.8277 C   0  0  0  0  0  0  0  0  0  0  0  0
    6.4717   -6.4543   21.6716 C   0  0  0  0  0  0  0  0  0  0  0  0
    7.1298   -7.0492   22.8813 C   0  0  0  0  0  0  0  0  0  0  0  0
    6.8106   -6.5169   24.2468 C   0  0  0  0  0  0  0  0  0  0  0  0
    8.0866   -1.8457   26.0194 C   0  0  0  0  0  0  0  0  0  0  0  0
    9.0878   -1.1364   25.1566 C   0  0  0  0  0  0  0  0  0  0  0  0
    8.6338   -0.0768   24.1969 C   0  0  0  0  0  0  0  0  0  0  0  0
    9.6351    0.6325   23.3342 N   0  0  0  0  0  0  0  0  0  0  0  0
   11.0903    0.2822   23.4310 C   0  0  0  0  0  0  0  0  0  0  0  0
   11.5444   -0.7775   24.3908 C   0  0  0  0  0  0  0  0  0  0  0  0
   12.9997   -1.1278   24.4877 C   0  0  0  0  0  0  0  0  0  0  0  0
   13.4537   -2.1874   25.4473 C   0  0  0  0  0  0  0  0  0  0  0  0
   12.4525   -2.8967   26.3101 C   0  0  0  0  0  0  0  0  0  0  0  0
   10.9972   -2.5464   26.2132 C   0  0  0  0  0  0  0  0  0  0  0  0
   10.5432   -1.4868   25.2535 C   0  0  0  0  0  0  0  0  0  0  0  0
  1  2  2  0  0  0
  2 15  1  0  0  0
 15 16  1  0  0  0
 16 17  2  0  0  0
 17 18  1  0  0  0
 18 19  2  0  0  0
 19 20  1  0  0  0
 20 21  2  0  0  0
 21 22  1  0  0  0
 22 23  2  0  0  0
 23 24  1  0  0  0
 24 25  2  0  0  0
  2  3  1  0  0  0
  3  4  1  0  0  0
  4  5  1  0  0  0
  5  6  1  0  0  0
  6  7  1  0  0  0
  7  8  1  0  0  0
  8  9  1  0  0  0
  9 10  2  0  0  0
 10 11  1  0  0  0
 11 12  2  0  0  0
 12 13  1  0  0  0
 13 14  2  0  0  0
 25 16  1  0  0  0
  8  3  1  0  0  0
 14  9  1  0  0  0
 25 20  1  0  0  0
M  END
> <minimizedAffinity>
-7.14122

> <CNNscore>
0.5152697563

> <CNNaffinity>
5.6381053925

> <CNN_VS>
2.9051451683

> <CNNaffinity_variance>
0.1058699936

$$$$
