


 36 40  0  0  0  0  0  0  0  0999 V2000
    8.5405    4.3238   23.3442 N   0  0  0  0  0  0  0  0  0  0  0  0
    7.7878    3.0819   23.7195 C   0  0  0  0  0  0  0  0  0  0  0  0
    8.4788    1.7507   23.6980 C   0  0  0  0  0  0  0  0  0  0  0  0
    9.0335    0.3573   23.7231 C   0  0  0  0  0  0  0  0  0  0  0  0
   10.0720   -0.2352   23.5067 O   0  0  0  0  0  0  0  0  0  0  0  0
    7.9368   -0.5705   24.1548 N   0  0  0  0  0  0  0  0  0  0  0  0
    6.7042    0.2495   24.3964 C   0  0  0  0  0  0  0  0  0  0  0  0
    7.0393    1.6841   24.1141 C   0  0  0  0  0  0  0  0  0  0  0  0
    9.9227    1.6615   23.3010 C   0  0  0  0  0  0  0  0  0  0  0  0
   10.6137    0.3304   23.2795 C   0  0  0  0  0  0  0  0  0  0  0  0
   12.0574    0.2412   22.8825 C   0  0  0  0  0  0  0  0  0  0  0  0
   12.7485   -1.0900   22.8610 Cl  0  0  0  0  0  0  0  0  0  0  0  0
   12.8102    1.4832   22.5072 C   0  0  0  0  0  0  0  0  0  0  0  0
   12.1191    2.8143   22.5287 C   0  0  0  0  0  0  0  0  0  0  0  0
   10.6754    2.9035   22.9256 C   0  0  0  0  0  0  0  0  0  0  0  0
    9.9843    4.2347   22.9472 C   0  0  0  0  0  0  0  0  0  0  0  0
   10.7370    5.4766   22.5718 O   0  0  0  0  0  0  0  0  0  0  0  0
    8.0523   -2.0573   24.3165 C   0  0  0  0  0  0  0  0  0  0  0  0
    7.0476   -2.9626   23.6676 C   0  0  0  0  0  0  0  0  0  0  0  0
    7.1632   -4.4494   23.8292 N   0  0  0  0  0  0  0  0  0  0  0  0
    8.2834   -5.0309   24.6398 C   0  0  0  0  0  0  0  0  0  0  0  0
    9.2881   -4.1255   25.2887 C   0  0  0  0  0  0  0  0  0  0  0  0
   10.4083   -4.7071   26.0993 C   0  0  0  0  0  0  0  0  0  0  0  0
   11.4130   -3.8017   26.7481 C   0  0  0  0  0  0  0  0  0  0  0  0
   11.2974   -2.3149   26.5864 C   0  0  0  0  0  0  0  0  0  0  0  0
   10.1772   -1.7334   25.7759 C   0  0  0  0  0  0  0  0  0  0  0  0
    9.1725   -2.6388   25.1270 C   0  0  0  0  0  0  0  0  0  0  0  0
    7.8494    5.6550   23.3657 C   0  0  0  0  0  0  0  0  0  0  0  0
    5.7612    7.8228   20.7792 C   0  0  0  0  0  0  0  0  0  0  0  0
    6.7188    7.4571   21.8744 N   0  0  0  0  0  0  0  0  0  0  0  0
    6.8919    6.0208   22.2706 C   0  0  0  0  0  0  0  0  0  0  0  0
    6.1075    4.9501   21.5716 O   0  0  0  0  0  0  0  0  0  0  0  0
    7.2336    8.1597   22.3331 H   0  0  0  0  0  0  0  0  0  0  0  0
    6.0996    2.8478   24.2279 C   0  0  0  0  0  0  0  0  0  0  0  0
    4.6586    2.6886   23.8432 O   0  0  0  0  0  0  0  0  0  0  0  0
    4.2971    2.0277   22.5462 C   0  0  0  0  0  0  0  0  0  0  0  0
 29 30  1  0  0  0
 30 31  1  0  0  0
 31 32  2  0  0  0
 31 28  1  0  0  0
 28  1  1  0  0  0
  1  2  1  0  0  0
  3  2  1  0  0  0
  3  4  1  0  0  0
  4  5  2  0  0  0
  4  6  1  0  0  0
  6 18  1  0  0  0
 18 19  2  0  0  0
 19 20  1  0  0  0
 20 21  2  0  0  0
 21 22  1  0  0  0
 22 23  2  0  0  0
 23 24  1  0  0  0
 24 25  2  0  0  0
 25 26  1  0  0  0
 26 27  2  0  0  0
  6  7  1  0  0  0
  7  8  1  0  0  0
  8 34  1  0  0  0
 34 35  1  0  0  0
 35 36  1  0  0  0
  3  9  1  0  0  0
  9 10  2  0  0  0
 10 11  1  0  0  0
 11 12  1  0  0  0
 11 13  2  0  0  0
 13 14  1  0  0  0
 14 15  2  0  0  0
 15 16  1  0  0  0
 16 17  2  0  0  0
 16  1  1  0  0  0
  8  3  1  0  0  0
 15  9  1  0  0  0
 27 18  1  0  0  0
 27 22  1  0  0  0
 30 33  1  0  0  0
M  END
> <minimizedAffinity>
-7.20024

> <CNNscore>
0.4040193558

> <CNNaffinity>
6.5089368820

> <CNN_VS>
2.6297364235

> <CNNaffinity_variance>
0.1455439180

$$$$



 36 40  0  0  0  0  0  0  0  0999 V2000
   10.3775    0.5859   23.6729 N   0  0  0  0  0  0  0  0  0  0  0  0
    8.9920    0.1896   24.0894 C   0  0  0  0  0  0  0  0  0  0  0  0
    8.7887   -0.9946   24.9872 C   0  0  0  0  0  0  0  0  0  0  0  0
    8.4314   -2.1488   25.8762 C   0  0  0  0  0  0  0  0  0  0  0  0
    8.9663   -3.0466   26.4961 O   0  0  0  0  0  0  0  0  0  0  0  0
    6.9392   -2.1738   26.0263 N   0  0  0  0  0  0  0  0  0  0  0  0
    6.3741   -1.0351   25.2301 C   0  0  0  0  0  0  0  0  0  0  0  0
    7.5171   -0.3063   24.5879 C   0  0  0  0  0  0  0  0  0  0  0  0
    9.9708   -1.7827   25.4686 C   0  0  0  0  0  0  0  0  0  0  0  0
    9.7674   -2.9670   26.3664 C   0  0  0  0  0  0  0  0  0  0  0  0
   10.9495   -3.7550   26.8476 C   0  0  0  0  0  0  0  0  0  0  0  0
   10.7462   -4.9394   27.7455 Cl  0  0  0  0  0  0  0  0  0  0  0  0
   12.3349   -3.3587   26.4311 C   0  0  0  0  0  0  0  0  0  0  0  0
   12.5383   -2.1745   25.5333 C   0  0  0  0  0  0  0  0  0  0  0  0
   11.3562   -1.3865   25.0520 C   0  0  0  0  0  0  0  0  0  0  0  0
   11.5596   -0.2021   24.1542 C   0  0  0  0  0  0  0  0  0  0  0  0
   12.9450    0.1941   23.7376 O   0  0  0  0  0  0  0  0  0  0  0  0
    6.1505   -3.1637   26.8313 C   0  0  0  0  0  0  0  0  0  0  0  0
    6.0845   -3.0336   28.3243 C   0  0  0  0  0  0  0  0  0  0  0  0
    5.2959   -4.0235   29.1293 N   0  0  0  0  0  0  0  0  0  0  0  0
    4.5731   -5.1436   28.4413 C   0  0  0  0  0  0  0  0  0  0  0  0
    4.6391   -5.2736   26.9484 C   0  0  0  0  0  0  0  0  0  0  0  0
    3.9163   -6.3937   26.2605 C   0  0  0  0  0  0  0  0  0  0  0  0
    3.9824   -6.5237   24.7676 C   0  0  0  0  0  0  0  0  0  0  0  0
    4.7710   -5.5338   23.9626 C   0  0  0  0  0  0  0  0  0  0  0  0
    5.4938   -4.4138   24.6505 C   0  0  0  0  0  0  0  0  0  0  0  0
    5.4278   -4.2837   26.1434 C   0  0  0  0  0  0  0  0  0  0  0  0
   10.5808    1.7702   22.7750 C   0  0  0  0  0  0  0  0  0  0  0  0
    8.0656    4.8079   23.2180 C   0  0  0  0  0  0  0  0  0  0  0  0
    9.1967    3.8558   23.4712 N   0  0  0  0  0  0  0  0  0  0  0  0
    9.4497    2.7224   22.5219 C   0  0  0  0  0  0  0  0  0  0  0  0
    8.5716    2.5410   21.3193 O   0  0  0  0  0  0  0  0  0  0  0  0
    9.7730    3.9748   24.2604 H   0  0  0  0  0  0  0  0  0  0  0  0
    7.4078    0.8991   23.7020 C   0  0  0  0  0  0  0  0  0  0  0  0
    6.1404    1.1599   22.9433 O   0  0  0  0  0  0  0  0  0  0  0  0
    5.3133    2.3709   23.2585 C   0  0  0  0  0  0  0  0  0  0  0  0
 29 30  1  0  0  0
 30 31  1  0  0  0
 31 32  2  0  0  0
 31 28  1  0  0  0
 28  1  1  0  0  0
  1  2  1  0  0  0
  3  2  1  0  0  0
  3  4  1  0  0  0
  4  5  2  0  0  0
  4  6  1  0  0  0
  6 18  1  0  0  0
 18 19  2  0  0  0
 19 20  1  0  0  0
 20 21  2  0  0  0
 21 22  1  0  0  0
 22 23  2  0  0  0
 23 24  1  0  0  0
 24 25  2  0  0  0
 25 26  1  0  0  0
 26 27  2  0  0  0
  6  7  1  0  0  0
  7  8  1  0  0  0
  8 34  1  0  0  0
 34 35  1  0  0  0
 35 36  1  0  0  0
  3  9  1  0  0  0
  9 10  2  0  0  0
 10 11  1  0  0  0
 11 12  1  0  0  0
 11 13  2  0  0  0
 13 14  1  0  0  0
 14 15  2  0  0  0
 15 16  1  0  0  0
 16 17  2  0  0  0
 16  1  1  0  0  0
  8  3  1  0  0  0
 15  9  1  0  0  0
 27 18  1  0  0  0
 27 22  1  0  0  0
 30 33  1  0  0  0
M  END
> <minimizedAffinity>
-7.57093

> <CNNscore>
0.3968866169

> <CNNaffinity>
6.4260778427

> <CNN_VS>
2.5504243374

> <CNNaffinity_variance>
0.2514796853

$$$$



 36 40  0  0  0  0  0  0  0  0999 V2000
    5.1536    1.5718   22.3907 N   0  0  0  0  0  0  0  0  0  0  0  0
    6.4433    0.8155   22.5122 C   0  0  0  0  0  0  0  0  0  0  0  0
    6.7289    0.0135   23.7472 C   0  0  0  0  0  0  0  0  0  0  0  0
    7.1515   -0.8269   24.9156 C   0  0  0  0  0  0  0  0  0  0  0  0
    6.7435   -1.1797   26.0044 O   0  0  0  0  0  0  0  0  0  0  0  0
    8.5062   -1.3950   24.6122 N   0  0  0  0  0  0  0  0  0  0  0  0
    8.9209   -0.9056   23.2563 C   0  0  0  0  0  0  0  0  0  0  0  0
    7.8225   -0.0351   22.7217 C   0  0  0  0  0  0  0  0  0  0  0  0
    5.7249   -0.0322   24.8607 C   0  0  0  0  0  0  0  0  0  0  0  0
    6.0105   -0.8341   26.0957 C   0  0  0  0  0  0  0  0  0  0  0  0
    5.0065   -0.8798   27.2092 C   0  0  0  0  0  0  0  0  0  0  0  0
    5.2922   -1.6817   28.4442 Cl  0  0  0  0  0  0  0  0  0  0  0  0
    3.7169   -0.1235   27.0876 C   0  0  0  0  0  0  0  0  0  0  0  0
    3.4312    0.6785   25.8526 C   0  0  0  0  0  0  0  0  0  0  0  0
    4.4352    0.7241   24.7392 C   0  0  0  0  0  0  0  0  0  0  0  0
    4.1496    1.5261   23.5041 C   0  0  0  0  0  0  0  0  0  0  0  0
    2.8599    2.2824   23.3826 O   0  0  0  0  0  0  0  0  0  0  0  0
    9.3057   -2.2945   25.5075 C   0  0  0  0  0  0  0  0  0  0  0  0
    8.6095   -3.3025   26.3731 C   0  0  0  0  0  0  0  0  0  0  0  0
    9.4091   -4.2020   27.2684 N   0  0  0  0  0  0  0  0  0  0  0  0
   10.9048   -4.0935   27.2981 C   0  0  0  0  0  0  0  0  0  0  0  0
   11.6010   -3.0855   26.4325 C   0  0  0  0  0  0  0  0  0  0  0  0
   13.0969   -2.9770   26.4623 C   0  0  0  0  0  0  0  0  0  0  0  0
   13.7930   -1.9689   25.5966 C   0  0  0  0  0  0  0  0  0  0  0  0
   12.9935   -1.0695   24.7013 C   0  0  0  0  0  0  0  0  0  0  0  0
   11.4977   -1.1780   24.6716 C   0  0  0  0  0  0  0  0  0  0  0  0
   10.8015   -2.1860   25.5372 C   0  0  0  0  0  0  0  0  0  0  0  0
    4.8680    2.3737   21.1556 C   0  0  0  0  0  0  0  0  0  0  0  0
    4.9241    0.5084   17.6531 C   0  0  0  0  0  0  0  0  0  0  0  0
    5.3946    1.1950   18.9010 N   0  0  0  0  0  0  0  0  0  0  0  0
    4.3975    1.6871   19.9077 C   0  0  0  0  0  0  0  0  0  0  0  0
    2.9298    1.4928   19.6665 O   0  0  0  0  0  0  0  0  0  0  0  0
    6.3579    1.3225   19.0593 H   0  0  0  0  0  0  0  0  0  0  0  0
    7.8185    0.6640   21.3946 C   0  0  0  0  0  0  0  0  0  0  0  0
    8.6388    1.9042   21.1977 O   0  0  0  0  0  0  0  0  0  0  0  0
    9.6324    2.3199   22.2416 C   0  0  0  0  0  0  0  0  0  0  0  0
 29 30  1  0  0  0
 30 31  1  0  0  0
 31 32  2  0  0  0
 31 28  1  0  0  0
 28  1  1  0  0  0
  1  2  1  0  0  0
  3  2  1  0  0  0
  3  4  1  0  0  0
  4  5  2  0  0  0
  4  6  1  0  0  0
  6 18  1  0  0  0
 18 19  2  0  0  0
 19 20  1  0  0  0
 20 21  2  0  0  0
 21 22  1  0  0  0
 22 23  2  0  0  0
 23 24  1  0  0  0
 24 25  2  0  0  0
 25 26  1  0  0  0
 26 27  2  0  0  0
  6  7  1  0  0  0
  7  8  1  0  0  0
  8 34  1  0  0  0
 34 35  1  0  0  0
 35 36  1  0  0  0
  3  9  1  0  0  0
  9 10  2  0  0  0
 10 11  1  0  0  0
 11 12  1  0  0  0
 11 13  2  0  0  0
 13 14  1  0  0  0
 14 15  2  0  0  0
 15 16  1  0  0  0
 16 17  2  0  0  0
 16  1  1  0  0  0
  8  3  1  0  0  0
 15  9  1  0  0  0
 27 18  1  0  0  0
 27 22  1  0  0  0
 30 33  1  0  0  0
M  END
> <minimizedAffinity>
-7.32685

> <CNNscore>
0.3323048353

> <CNNaffinity>
6.3545980453

> <CNN_VS>
2.1116635799

> <CNNaffinity_variance>
0.1005883217

$$$$



 36 40  0  0  0  0  0  0  0  0999 V2000
   10.8690    1.5867   22.6363 N   0  0  0  0  0  0  0  0  0  0  0  0
    9.4787    1.1236   22.9567 C   0  0  0  0  0  0  0  0  0  0  0  0
    9.2712   -0.1055   23.7910 C   0  0  0  0  0  0  0  0  0  0  0  0
    8.9095   -1.3096   24.6090 C   0  0  0  0  0  0  0  0  0  0  0  0
    9.4430   -2.2143   25.2200 O   0  0  0  0  0  0  0  0  0  0  0  0
    7.4132   -1.3941   24.6732 N   0  0  0  0  0  0  0  0  0  0  0  0
    6.8502   -0.2421   23.8947 C   0  0  0  0  0  0  0  0  0  0  0  0
    7.9985    0.5542   23.3495 C   0  0  0  0  0  0  0  0  0  0  0  0
   10.4540   -0.8716   24.3050 C   0  0  0  0  0  0  0  0  0  0  0  0
   10.2464   -2.1008   25.1393 C   0  0  0  0  0  0  0  0  0  0  0  0
   11.4292   -2.8668   25.6533 C   0  0  0  0  0  0  0  0  0  0  0  0
   11.2217   -4.0960   26.4876 Cl  0  0  0  0  0  0  0  0  0  0  0  0
   12.8195   -2.4038   25.3329 C   0  0  0  0  0  0  0  0  0  0  0  0
   13.0270   -1.1746   24.4986 C   0  0  0  0  0  0  0  0  0  0  0  0
   11.8443   -0.4086   23.9846 C   0  0  0  0  0  0  0  0  0  0  0  0
   12.0518    0.8206   23.1503 C   0  0  0  0  0  0  0  0  0  0  0  0
   13.4421    1.2837   22.8299 O   0  0  0  0  0  0  0  0  0  0  0  0
    6.6194   -2.4458   25.3899 C   0  0  0  0  0  0  0  0  0  0  0  0
    6.0766   -2.1714   26.7611 C   0  0  0  0  0  0  0  0  0  0  0  0
    5.2829   -3.2232   27.4778 N   0  0  0  0  0  0  0  0  0  0  0  0
    5.0318   -4.5493   26.8234 C   0  0  0  0  0  0  0  0  0  0  0  0
    5.5746   -4.8237   25.4522 C   0  0  0  0  0  0  0  0  0  0  0  0
    5.3236   -6.1499   24.7977 C   0  0  0  0  0  0  0  0  0  0  0  0
    5.8664   -6.4242   23.4265 C   0  0  0  0  0  0  0  0  0  0  0  0
    6.6602   -5.3725   22.7098 C   0  0  0  0  0  0  0  0  0  0  0  0
    6.9112   -4.0463   23.3643 C   0  0  0  0  0  0  0  0  0  0  0  0
    6.3684   -3.7720   24.7355 C   0  0  0  0  0  0  0  0  0  0  0  0
   11.0765    2.8159   21.8020 C   0  0  0  0  0  0  0  0  0  0  0  0
   10.6406    6.3580   23.5378 C   0  0  0  0  0  0  0  0  0  0  0  0
   10.3086    5.0518   22.8793 N   0  0  0  0  0  0  0  0  0  0  0  0
   11.4086    4.1221   22.4605 C   0  0  0  0  0  0  0  0  0  0  0  0
   12.8407    4.4984   22.7002 O   0  0  0  0  0  0  0  0  0  0  0  0
    9.3687    4.8048   22.7220 H   0  0  0  0  0  0  0  0  0  0  0  0
    7.8926    1.7929   22.5102 C   0  0  0  0  0  0  0  0  0  0  0  0
    7.5545    1.6848   21.0528 O   0  0  0  0  0  0  0  0  0  0  0  0
    6.9151    0.4361   20.5218 C   0  0  0  0  0  0  0  0  0  0  0  0
 29 30  1  0  0  0
 30 31  1  0  0  0
 31 32  2  0  0  0
 31 28  1  0  0  0
 28  1  1  0  0  0
  1  2  1  0  0  0
  3  2  1  0  0  0
  3  4  1  0  0  0
  4  5  2  0  0  0
  4  6  1  0  0  0
  6 18  1  0  0  0
 18 19  2  0  0  0
 19 20  1  0  0  0
 20 21  2  0  0  0
 21 22  1  0  0  0
 22 23  2  0  0  0
 23 24  1  0  0  0
 24 25  2  0  0  0
 25 26  1  0  0  0
 26 27  2  0  0  0
  6  7  1  0  0  0
  7  8  1  0  0  0
  8 34  1  0  0  0
 34 35  1  0  0  0
 35 36  1  0  0  0
  3  9  1  0  0  0
  9 10  2  0  0  0
 10 11  1  0  0  0
 11 12  1  0  0  0
 11 13  2  0  0  0
 13 14  1  0  0  0
 14 15  2  0  0  0
 15 16  1  0  0  0
 16 17  2  0  0  0
 16  1  1  0  0  0
  8  3  1  0  0  0
 15  9  1  0  0  0
 27 18  1  0  0  0
 27 22  1  0  0  0
 30 33  1  0  0  0
M  END
> <minimizedAffinity>
-8.11244

> <CNNscore>
0.3161462545

> <CNNaffinity>
6.6343674660

> <CNN_VS>
2.0974304676

> <CNNaffinity_variance>
0.1502452493

$$$$



 36 40  0  0  0  0  0  0  0  0999 V2000
    4.9120    1.9802   21.5901 N   0  0  0  0  0  0  0  0  0  0  0  0
    6.0219    0.9743   21.5114 C   0  0  0  0  0  0  0  0  0  0  0  0
    6.4192    0.1987   22.7323 C   0  0  0  0  0  0  0  0  0  0  0  0
    6.9244   -0.6472   23.8633 C   0  0  0  0  0  0  0  0  0  0  0  0
    6.7147   -0.8447   25.0437 O   0  0  0  0  0  0  0  0  0  0  0  0
    8.0362   -1.5067   23.3387 N   0  0  0  0  0  0  0  0  0  0  0  0
    8.2182   -1.1920   21.8834 C   0  0  0  0  0  0  0  0  0  0  0  0
    7.2188   -0.1380   21.5086 C   0  0  0  0  0  0  0  0  0  0  0  0
    5.7067    0.4291   24.0320 C   0  0  0  0  0  0  0  0  0  0  0  0
    6.1041   -0.3464   25.2529 C   0  0  0  0  0  0  0  0  0  0  0  0
    5.3915   -0.1159   26.5526 C   0  0  0  0  0  0  0  0  0  0  0  0
    5.7889   -0.8915   27.7735 Cl  0  0  0  0  0  0  0  0  0  0  0  0
    4.2817    0.8900   26.6313 C   0  0  0  0  0  0  0  0  0  0  0  0
    3.8843    1.6656   25.4104 C   0  0  0  0  0  0  0  0  0  0  0  0
    4.5968    1.4351   24.1108 C   0  0  0  0  0  0  0  0  0  0  0  0
    4.1995    2.2107   22.8898 C   0  0  0  0  0  0  0  0  0  0  0  0
    3.0896    3.2166   22.9686 O   0  0  0  0  0  0  0  0  0  0  0  0
    8.8271   -2.5055   24.1304 C   0  0  0  0  0  0  0  0  0  0  0  0
    8.2394   -3.8498   24.4426 C   0  0  0  0  0  0  0  0  0  0  0  0
    9.0303   -4.8486   25.2343 N   0  0  0  0  0  0  0  0  0  0  0  0
   10.4090   -4.5032   25.7137 C   0  0  0  0  0  0  0  0  0  0  0  0
   10.9967   -3.1589   25.4015 C   0  0  0  0  0  0  0  0  0  0  0  0
   12.3755   -2.8134   25.8810 C   0  0  0  0  0  0  0  0  0  0  0  0
   12.9631   -1.4691   25.5687 C   0  0  0  0  0  0  0  0  0  0  0  0
   12.1722   -0.4703   24.7770 C   0  0  0  0  0  0  0  0  0  0  0  0
   10.7935   -0.8158   24.2976 C   0  0  0  0  0  0  0  0  0  0  0  0
   10.2058   -2.1600   24.6098 C   0  0  0  0  0  0  0  0  0  0  0  0
    4.5147    2.7558   20.3692 C   0  0  0  0  0  0  0  0  0  0  0  0
    1.0461    4.5936   19.7846 C   0  0  0  0  0  0  0  0  0  0  0  0
    2.4972    4.3690   20.0911 N   0  0  0  0  0  0  0  0  0  0  0  0
    3.0636    2.9804   20.0626 C   0  0  0  0  0  0  0  0  0  0  0  0
    2.1789    1.8162   19.7276 O   0  0  0  0  0  0  0  0  0  0  0  0
    3.0779    5.1330   20.3110 H   0  0  0  0  0  0  0  0  0  0  0  0
    7.0490    0.4722   20.1489 C   0  0  0  0  0  0  0  0  0  0  0  0
    7.0252   -0.4036   18.9314 O   0  0  0  0  0  0  0  0  0  0  0  0
    5.7153   -0.8679   18.3669 C   0  0  0  0  0  0  0  0  0  0  0  0
 29 30  1  0  0  0
 30 31  1  0  0  0
 31 32  2  0  0  0
 31 28  1  0  0  0
 28  1  1  0  0  0
  1  2  1  0  0  0
  3  2  1  0  0  0
  3  4  1  0  0  0
  4  5  2  0  0  0
  4  6  1  0  0  0
  6 18  1  0  0  0
 18 19  2  0  0  0
 19 20  1  0  0  0
 20 21  2  0  0  0
 21 22  1  0  0  0
 22 23  2  0  0  0
 23 24  1  0  0  0
 24 25  2  0  0  0
 25 26  1  0  0  0
 26 27  2  0  0  0
  6  7  1  0  0  0
  7  8  1  0  0  0
  8 34  1  0  0  0
 34 35  1  0  0  0
 35 36  1  0  0  0
  3  9  1  0  0  0
  9 10  2  0  0  0
 10 11  1  0  0  0
 11 12  1  0  0  0
 11 13  2  0  0  0
 13 14  1  0  0  0
 14 15  2  0  0  0
 15 16  1  0  0  0
 16 17  2  0  0  0
 16  1  1  0  0  0
  8  3  1  0  0  0
 15  9  1  0  0  0
 27 18  1  0  0  0
 27 22  1  0  0  0
 30 33  1  0  0  0
M  END
> <minimizedAffinity>
-7.51158

> <CNNscore>
0.2837495208

> <CNNaffinity>
6.1629986763

> <CNN_VS>
1.7487479448

> <CNNaffinity_variance>
0.1017770395

$$$$



 36 40  0  0  0  0  0  0  0  0999 V2000
   10.6746    1.5519   22.8180 N   0  0  0  0  0  0  0  0  0  0  0  0
    9.2713    1.2531   23.2557 C   0  0  0  0  0  0  0  0  0  0  0  0
    9.0042    0.1099   24.1893 C   0  0  0  0  0  0  0  0  0  0  0  0
    8.5853   -0.9942   25.1142 C   0  0  0  0  0  0  0  0  0  0  0  0
    9.0699   -1.9047   25.7563 O   0  0  0  0  0  0  0  0  0  0  0  0
    7.0956   -0.9236   25.2755 N   0  0  0  0  0  0  0  0  0  0  0  0
    6.5939    0.2241   24.4502 C   0  0  0  0  0  0  0  0  0  0  0  0
    7.7734    0.8628   23.7789 C   0  0  0  0  0  0  0  0  0  0  0  0
   10.1404   -0.7347   24.6851 C   0  0  0  0  0  0  0  0  0  0  0  0
    9.8732   -1.8780   25.6187 C   0  0  0  0  0  0  0  0  0  0  0  0
   11.0094   -2.7225   26.1145 C   0  0  0  0  0  0  0  0  0  0  0  0
   10.7423   -3.8659   27.0481 Cl  0  0  0  0  0  0  0  0  0  0  0  0
   12.4127   -2.4238   25.6767 C   0  0  0  0  0  0  0  0  0  0  0  0
   12.6798   -1.2806   24.7432 C   0  0  0  0  0  0  0  0  0  0  0  0
   11.5436   -0.4360   24.2474 C   0  0  0  0  0  0  0  0  0  0  0  0
   11.8107    0.7073   23.3138 C   0  0  0  0  0  0  0  0  0  0  0  0
   13.2140    1.0060   22.8760 O   0  0  0  0  0  0  0  0  0  0  0  0
    6.2553   -1.8399   26.1147 C   0  0  0  0  0  0  0  0  0  0  0  0
    5.9606   -3.2320   25.6402 C   0  0  0  0  0  0  0  0  0  0  0  0
    5.1202   -4.1483   26.4794 N   0  0  0  0  0  0  0  0  0  0  0  0
    4.5747   -3.6725   27.7932 C   0  0  0  0  0  0  0  0  0  0  0  0
    4.8694   -2.2803   28.2677 C   0  0  0  0  0  0  0  0  0  0  0  0
    4.3238   -1.8045   29.5815 C   0  0  0  0  0  0  0  0  0  0  0  0
    4.6186   -0.4123   30.0559 C   0  0  0  0  0  0  0  0  0  0  0  0
    5.4589    0.5039   29.2167 C   0  0  0  0  0  0  0  0  0  0  0  0
    6.0045    0.0281   27.9029 C   0  0  0  0  0  0  0  0  0  0  0  0
    5.7097   -1.3641   27.4284 C   0  0  0  0  0  0  0  0  0  0  0  0
   10.9417    2.6952   21.8844 C   0  0  0  0  0  0  0  0  0  0  0  0
   10.6667    6.3539   23.3971 C   0  0  0  0  0  0  0  0  0  0  0  0
   10.2752    5.0137   22.8489 N   0  0  0  0  0  0  0  0  0  0  0  0
   11.3333    4.0354   22.4326 C   0  0  0  0  0  0  0  0  0  0  0  0
   12.7830    4.3972   22.5646 O   0  0  0  0  0  0  0  0  0  0  0  0
    9.3237    4.7762   22.7622 H   0  0  0  0  0  0  0  0  0  0  0  0
    7.7299    2.0466   22.8588 C   0  0  0  0  0  0  0  0  0  0  0  0
    6.8696    2.0107   21.6306 O   0  0  0  0  0  0  0  0  0  0  0  0
    6.6983    0.7280   20.8721 C   0  0  0  0  0  0  0  0  0  0  0  0
 29 30  1  0  0  0
 30 31  1  0  0  0
 31 32  2  0  0  0
 31 28  1  0  0  0
 28  1  1  0  0  0
  1  2  1  0  0  0
  3  2  1  0  0  0
  3  4  1  0  0  0
  4  5  2  0  0  0
  4  6  1  0  0  0
  6 18  1  0  0  0
 18 19  2  0  0  0
 19 20  1  0  0  0
 20 21  2  0  0  0
 21 22  1  0  0  0
 22 23  2  0  0  0
 23 24  1  0  0  0
 24 25  2  0  0  0
 25 26  1  0  0  0
 26 27  2  0  0  0
  6  7  1  0  0  0
  7  8  1  0  0  0
  8 34  1  0  0  0
 34 35  1  0  0  0
 35 36  1  0  0  0
  3  9  1  0  0  0
  9 10  2  0  0  0
 10 11  1  0  0  0
 11 12  1  0  0  0
 11 13  2  0  0  0
 13 14  1  0  0  0
 14 15  2  0  0  0
 15 16  1  0  0  0
 16 17  2  0  0  0
 16  1  1  0  0  0
  8  3  1  0  0  0
 15  9  1  0  0  0
 27 18  1  0  0  0
 27 22  1  0  0  0
 30 33  1  0  0  0
M  END
> <minimizedAffinity>
-7.47353

> <CNNscore>
0.2776728868

> <CNNaffinity>
6.3693695068

> <CNN_VS>
1.7686011791

> <CNNaffinity_variance>
0.1355670989

$$$$



 36 40  0  0  0  0  0  0  0  0999 V2000
    4.0592   -5.0544   25.8564 N   0  0  0  0  0  0  0  0  0  0  0  0
    5.3978   -4.9236   25.1922 C   0  0  0  0  0  0  0  0  0  0  0  0
    6.1909   -3.6598   25.3458 C   0  0  0  0  0  0  0  0  0  0  0  0
    7.0934   -2.4633   25.4091 C   0  0  0  0  0  0  0  0  0  0  0  0
    7.1333   -1.3525   25.8997 O   0  0  0  0  0  0  0  0  0  0  0  0
    8.3223   -2.7665   24.6042 N   0  0  0  0  0  0  0  0  0  0  0  0
    8.1793   -4.1504   24.0434 C   0  0  0  0  0  0  0  0  0  0  0  0
    6.8621   -4.7024   24.5018 C   0  0  0  0  0  0  0  0  0  0  0  0
    5.6454   -2.5267   26.1635 C   0  0  0  0  0  0  0  0  0  0  0  0
    6.4385   -1.2628   26.3171 C   0  0  0  0  0  0  0  0  0  0  0  0
    5.8930   -0.1298   27.1348 C   0  0  0  0  0  0  0  0  0  0  0  0
    6.6862    1.1341   27.2884 Cl  0  0  0  0  0  0  0  0  0  0  0  0
    4.5545   -0.2606   27.7989 C   0  0  0  0  0  0  0  0  0  0  0  0
    3.7613   -1.5245   27.6453 C   0  0  0  0  0  0  0  0  0  0  0  0
    4.3068   -2.6575   26.8277 C   0  0  0  0  0  0  0  0  0  0  0  0
    3.5137   -3.9214   26.6741 C   0  0  0  0  0  0  0  0  0  0  0  0
    2.1751   -4.0522   27.3382 O   0  0  0  0  0  0  0  0  0  0  0  0
    9.4892   -1.8473   24.3965 C   0  0  0  0  0  0  0  0  0  0  0  0
    9.3444   -0.6371   23.5222 C   0  0  0  0  0  0  0  0  0  0  0  0
   10.5114    0.2822   23.3145 N   0  0  0  0  0  0  0  0  0  0  0  0
   11.8232   -0.0087   23.9812 C   0  0  0  0  0  0  0  0  0  0  0  0
   11.9680   -1.2189   24.8556 C   0  0  0  0  0  0  0  0  0  0  0  0
   13.2799   -1.5098   25.5223 C   0  0  0  0  0  0  0  0  0  0  0  0
   13.4246   -2.7200   26.3966 C   0  0  0  0  0  0  0  0  0  0  0  0
   12.2577   -3.6393   26.6043 C   0  0  0  0  0  0  0  0  0  0  0  0
   10.9459   -3.3484   25.9376 C   0  0  0  0  0  0  0  0  0  0  0  0
   10.8010   -2.1382   25.0632 C   0  0  0  0  0  0  0  0  0  0  0  0
    3.2661   -6.3184   25.7028 C   0  0  0  0  0  0  0  0  0  0  0  0
   -0.2466   -5.9987   23.8837 C   0  0  0  0  0  0  0  0  0  0  0  0
    0.8185   -5.9048   24.9357 N   0  0  0  0  0  0  0  0  0  0  0  0
    2.2010   -6.4123   24.6507 C   0  0  0  0  0  0  0  0  0  0  0  0
    2.5184   -7.0136   23.3137 O   0  0  0  0  0  0  0  0  0  0  0  0
    0.6102   -5.5101   25.8133 H   0  0  0  0  0  0  0  0  0  0  0  0
    6.3125   -6.0590   24.1737 C   0  0  0  0  0  0  0  0  0  0  0  0
    6.6650   -6.7164   22.8724 O   0  0  0  0  0  0  0  0  0  0  0  0
    6.1020   -6.1859   21.5872 C   0  0  0  0  0  0  0  0  0  0  0  0
 29 30  1  0  0  0
 30 31  1  0  0  0
 31 32  2  0  0  0
 31 28  1  0  0  0
 28  1  1  0  0  0
  1  2  1  0  0  0
  3  2  1  0  0  0
  3  4  1  0  0  0
  4  5  2  0  0  0
  4  6  1  0  0  0
  6 18  1  0  0  0
 18 19  2  0  0  0
 19 20  1  0  0  0
 20 21  2  0  0  0
 21 22  1  0  0  0
 22 23  2  0  0  0
 23 24  1  0  0  0
 24 25  2  0  0  0
 25 26  1  0  0  0
 26 27  2  0  0  0
  6  7  1  0  0  0
  7  8  1  0  0  0
  8 34  1  0  0  0
 34 35  1  0  0  0
 35 36  1  0  0  0
  3  9  1  0  0  0
  9 10  2  0  0  0
 10 11  1  0  0  0
 11 12  1  0  0  0
 11 13  2  0  0  0
 13 14  1  0  0  0
 14 15  2  0  0  0
 15 16  1  0  0  0
 16 17  2  0  0  0
 16  1  1  0  0  0
  8  3  1  0  0  0
 15  9  1  0  0  0
 27 18  1  0  0  0
 27 22  1  0  0  0
 30 33  1  0  0  0
M  END
> <minimizedAffinity>
-7.14658

> <CNNscore>
0.2715944946

> <CNNaffinity>
6.1743450165

> <CNN_VS>
1.6769181490

> <CNNaffinity_variance>
0.0426082015

$$$$



 36 40  0  0  0  0  0  0  0  0999 V2000
    6.7653    1.9742   21.6186 N   0  0  0  0  0  0  0  0  0  0  0  0
    8.0716    1.8145   22.3384 C   0  0  0  0  0  0  0  0  0  0  0  0
    8.4985    0.4620   22.8265 C   0  0  0  0  0  0  0  0  0  0  0  0
    9.0550   -0.8208   23.3694 C   0  0  0  0  0  0  0  0  0  0  0  0
    8.7701   -1.9994   23.4484 O   0  0  0  0  0  0  0  0  0  0  0  0
   10.3780   -0.5186   24.0083 N   0  0  0  0  0  0  0  0  0  0  0  0
   10.6393    0.9510   23.8602 C   0  0  0  0  0  0  0  0  0  0  0  0
    9.4777    1.5570   23.1299 C   0  0  0  0  0  0  0  0  0  0  0  0
    7.6191   -0.7310   22.5949 C   0  0  0  0  0  0  0  0  0  0  0  0
    8.0460   -2.0835   23.0830 C   0  0  0  0  0  0  0  0  0  0  0  0
    7.1666   -3.2764   22.8513 C   0  0  0  0  0  0  0  0  0  0  0  0
    7.5935   -4.6290   23.3394 Cl  0  0  0  0  0  0  0  0  0  0  0  0
    5.8603   -3.1167   22.1315 C   0  0  0  0  0  0  0  0  0  0  0  0
    5.4334   -1.7641   21.6434 C   0  0  0  0  0  0  0  0  0  0  0  0
    6.3128   -0.5713   21.8750 C   0  0  0  0  0  0  0  0  0  0  0  0
    5.8859    0.7814   21.3869 C   0  0  0  0  0  0  0  0  0  0  0  0
    4.5797    0.9411   20.6671 O   0  0  0  0  0  0  0  0  0  0  0  0
   11.2813   -1.5116   24.6776 C   0  0  0  0  0  0  0  0  0  0  0  0
   12.7182   -1.6187   24.2607 C   0  0  0  0  0  0  0  0  0  0  0  0
   13.6214   -2.6117   24.9300 N   0  0  0  0  0  0  0  0  0  0  0  0
   13.0877   -3.4977   26.0164 C   0  0  0  0  0  0  0  0  0  0  0  0
   11.6508   -3.3907   26.4333 C   0  0  0  0  0  0  0  0  0  0  0  0
   11.1170   -4.2768   27.5197 C   0  0  0  0  0  0  0  0  0  0  0  0
    9.6801   -4.1697   27.9366 C   0  0  0  0  0  0  0  0  0  0  0  0
    8.7769   -3.1766   27.2672 C   0  0  0  0  0  0  0  0  0  0  0  0
    9.3106   -2.2906   26.1809 C   0  0  0  0  0  0  0  0  0  0  0  0
   10.7475   -2.3976   25.7639 C   0  0  0  0  0  0  0  0  0  0  0  0
    6.3385    3.3269   21.1305 C   0  0  0  0  0  0  0  0  0  0  0  0
    3.5467    6.0239   21.9565 C   0  0  0  0  0  0  0  0  0  0  0  0
    4.6028    5.2582   21.2158 N   0  0  0  0  0  0  0  0  0  0  0  0
    5.2824    4.0926   21.8711 C   0  0  0  0  0  0  0  0  0  0  0  0
    4.9060    3.6926   23.2670 O   0  0  0  0  0  0  0  0  0  0  0  0
    4.8498    5.5207   20.2997 H   0  0  0  0  0  0  0  0  0  0  0  0
    9.3225    3.0041   22.7666 C   0  0  0  0  0  0  0  0  0  0  0  0
   10.5284    3.8211   22.4087 O   0  0  0  0  0  0  0  0  0  0  0  0
   11.7864    3.6950   23.2160 C   0  0  0  0  0  0  0  0  0  0  0  0
 29 30  1  0  0  0
 30 31  1  0  0  0
 31 32  2  0  0  0
 31 28  1  0  0  0
 28  1  1  0  0  0
  1  2  1  0  0  0
  3  2  1  0  0  0
  3  4  1  0  0  0
  4  5  2  0  0  0
  4  6  1  0  0  0
  6 18  1  0  0  0
 18 19  2  0  0  0
 19 20  1  0  0  0
 20 21  2  0  0  0
 21 22  1  0  0  0
 22 23  2  0  0  0
 23 24  1  0  0  0
 24 25  2  0  0  0
 25 26  1  0  0  0
 26 27  2  0  0  0
  6  7  1  0  0  0
  7  8  1  0  0  0
  8 34  1  0  0  0
 34 35  1  0  0  0
 35 36  1  0  0  0
  3  9  1  0  0  0
  9 10  2  0  0  0
 10 11  1  0  0  0
 11 12  1  0  0  0
 11 13  2  0  0  0
 13 14  1  0  0  0
 14 15  2  0  0  0
 15 16  1  0  0  0
 16 17  2  0  0  0
 16  1  1  0  0  0
  8  3  1  0  0  0
 15  9  1  0  0  0
 27 18  1  0  0  0
 27 22  1  0  0  0
 30 33  1  0  0  0
M  END
> <minimizedAffinity>
-7.19856

> <CNNscore>
0.2548214793

> <CNNaffinity>
6.4322366714

> <CNN_VS>
1.6390720606

> <CNNaffinity_variance>
0.0554970279

$$$$



 36 40  0  0  0  0  0  0  0  0999 V2000
    7.4634    4.5373   23.8843 N   0  0  0  0  0  0  0  0  0  0  0  0
    8.2039    3.2822   23.5287 C   0  0  0  0  0  0  0  0  0  0  0  0
    7.9793    2.0287   24.3213 C   0  0  0  0  0  0  0  0  0  0  0  0
    7.8589    0.7062   25.0188 C   0  0  0  0  0  0  0  0  0  0  0  0
    7.2620    0.1930   25.9444 O   0  0  0  0  0  0  0  0  0  0  0  0
    8.7755   -0.2640   24.3344 N   0  0  0  0  0  0  0  0  0  0  0  0
    9.4624    0.4588   23.2138 C   0  0  0  0  0  0  0  0  0  0  0  0
    8.9704    1.8758   23.2058 C   0  0  0  0  0  0  0  0  0  0  0  0
    7.0141    2.0302   25.4696 C   0  0  0  0  0  0  0  0  0  0  0  0
    6.7895    0.7767   26.2622 C   0  0  0  0  0  0  0  0  0  0  0  0
    5.8243    0.7783   27.4104 C   0  0  0  0  0  0  0  0  0  0  0  0
    5.5997   -0.4753   28.2031 Cl  0  0  0  0  0  0  0  0  0  0  0  0
    5.0838    2.0333   27.7660 C   0  0  0  0  0  0  0  0  0  0  0  0
    5.3084    3.2868   26.9734 C   0  0  0  0  0  0  0  0  0  0  0  0
    6.2736    3.2853   25.8252 C   0  0  0  0  0  0  0  0  0  0  0  0
    6.4982    4.5388   25.0325 C   0  0  0  0  0  0  0  0  0  0  0  0
    5.7576    5.7938   25.3881 O   0  0  0  0  0  0  0  0  0  0  0  0
    8.9708   -1.7042   24.7054 C   0  0  0  0  0  0  0  0  0  0  0  0
    7.8635   -2.6921   24.4861 C   0  0  0  0  0  0  0  0  0  0  0  0
    8.0588   -4.1323   24.8571 N   0  0  0  0  0  0  0  0  0  0  0  0
    9.3615   -4.5846   25.4473 C   0  0  0  0  0  0  0  0  0  0  0  0
   10.4688   -3.5968   25.6666 C   0  0  0  0  0  0  0  0  0  0  0  0
   11.7716   -4.0493   26.2568 C   0  0  0  0  0  0  0  0  0  0  0  0
   12.8788   -3.0614   26.4760 C   0  0  0  0  0  0  0  0  0  0  0  0
   12.6835   -1.6212   26.1050 C   0  0  0  0  0  0  0  0  0  0  0  0
   11.3808   -1.1688   25.5148 C   0  0  0  0  0  0  0  0  0  0  0  0
   10.2735   -2.1566   25.2956 C   0  0  0  0  0  0  0  0  0  0  0  0
    7.6880    5.7908   23.0917 C   0  0  0  0  0  0  0  0  0  0  0  0
   11.2550    7.3958   22.4204 C   0  0  0  0  0  0  0  0  0  0  0  0
    9.9996    6.5989   22.2235 N   0  0  0  0  0  0  0  0  0  0  0  0
    8.9434    6.5878   23.2886 C   0  0  0  0  0  0  0  0  0  0  0  0
    9.1427    7.3737   24.5506 O   0  0  0  0  0  0  0  0  0  0  0  0
    9.8688    6.0830   21.3952 H   0  0  0  0  0  0  0  0  0  0  0  0
    9.3949    2.9511   22.2499 C   0  0  0  0  0  0  0  0  0  0  0  0
   10.7004    3.6614   22.4518 O   0  0  0  0  0  0  0  0  0  0  0  0
   11.9751    2.8761   22.5445 C   0  0  0  0  0  0  0  0  0  0  0  0
 29 30  1  0  0  0
 30 31  1  0  0  0
 31 32  2  0  0  0
 31 28  1  0  0  0
 28  1  1  0  0  0
  1  2  1  0  0  0
  3  2  1  0  0  0
  3  4  1  0  0  0
  4  5  2  0  0  0
  4  6  1  0  0  0
  6 18  1  0  0  0
 18 19  2  0  0  0
 19 20  1  0  0  0
 20 21  2  0  0  0
 21 22  1  0  0  0
 22 23  2  0  0  0
 23 24  1  0  0  0
 24 25  2  0  0  0
 25 26  1  0  0  0
 26 27  2  0  0  0
  6  7  1  0  0  0
  7  8  1  0  0  0
  8 34  1  0  0  0
 34 35  1  0  0  0
 35 36  1  0  0  0
  3  9  1  0  0  0
  9 10  2  0  0  0
 10 11  1  0  0  0
 11 12  1  0  0  0
 11 13  2  0  0  0
 13 14  1  0  0  0
 14 15  2  0  0  0
 15 16  1  0  0  0
 16 17  2  0  0  0
 16  1  1  0  0  0
  8  3  1  0  0  0
 15  9  1  0  0  0
 27 18  1  0  0  0
 27 22  1  0  0  0
 30 33  1  0  0  0
M  END
> <minimizedAffinity>
-7.48975

> <CNNscore>
0.2377470583

> <CNNaffinity>
6.0220594406

> <CNN_VS>
1.4317269325

> <CNNaffinity_variance>
0.2589640915

$$$$
