


 36 41  0  0  0  0  0  0  0  0999 V2000
    8.1331    4.7058   23.6769 N   0  0  0  0  0  0  0  0  0  0  0  0
    7.4621    3.4193   24.0575 C   0  0  0  0  0  0  0  0  0  0  0  0
    8.2011    2.1206   23.9263 C   0  0  0  0  0  0  0  0  0  0  0  0
    8.8104    0.7521   23.8497 C   0  0  0  0  0  0  0  0  0  0  0  0
    9.8509    0.2131   23.5282 O   0  0  0  0  0  0  0  0  0  0  0  0
    7.7889   -0.2375   24.3264 N   0  0  0  0  0  0  0  0  0  0  0  0
    6.5483    0.5194   24.6976 C   0  0  0  0  0  0  0  0  0  0  0  0
    6.8030    1.9768   24.4504 C   0  0  0  0  0  0  0  0  0  0  0  0
    5.8304    3.0942   24.6859 C   0  0  0  0  0  0  0  0  0  0  0  0
    9.6111    2.1083   23.4145 C   0  0  0  0  0  0  0  0  0  0  0  0
   10.3500    0.8096   23.2833 C   0  0  0  0  0  0  0  0  0  0  0  0
   11.7599    0.7974   22.7714 C   0  0  0  0  0  0  0  0  0  0  0  0
   12.4990   -0.5013   22.6402 Cl  0  0  0  0  0  0  0  0  0  0  0  0
   12.4309    2.0839   22.3909 C   0  0  0  0  0  0  0  0  0  0  0  0
   11.6919    3.3826   22.5221 C   0  0  0  0  0  0  0  0  0  0  0  0
   10.2820    3.3948   23.0339 C   0  0  0  0  0  0  0  0  0  0  0  0
    9.5430    4.6936   23.1651 C   0  0  0  0  0  0  0  0  0  0  0  0
   10.2139    5.9800   22.7845 O   0  0  0  0  0  0  0  0  0  0  0  0
    7.9754   -1.7232   24.4160 C   0  0  0  0  0  0  0  0  0  0  0  0
    6.9611   -2.6446   23.8060 C   0  0  0  0  0  0  0  0  0  0  0  0
    7.1476   -4.1302   23.8957 N   0  0  0  0  0  0  0  0  0  0  0  0
    8.3484   -4.6945   24.5954 C   0  0  0  0  0  0  0  0  0  0  0  0
    9.3627   -3.7731   25.2054 C   0  0  0  0  0  0  0  0  0  0  0  0
   10.5636   -4.3374   25.9052 C   0  0  0  0  0  0  0  0  0  0  0  0
   11.5779   -3.4159   26.5152 C   0  0  0  0  0  0  0  0  0  0  0  0
   11.3914   -1.9302   26.4255 C   0  0  0  0  0  0  0  0  0  0  0  0
   10.1906   -1.3660   25.7258 C   0  0  0  0  0  0  0  0  0  0  0  0
    9.1762   -2.2874   25.1158 C   0  0  0  0  0  0  0  0  0  0  0  0
    7.3940    6.0046   23.8082 C   0  0  0  0  0  0  0  0  0  0  0  0
    6.8781    7.2781   24.4096 C   0  0  0  0  0  0  0  0  0  0  0  0
    7.7795    6.3832   25.2075 C   0  0  0  0  0  0  0  0  0  0  0  0
    6.0747    7.4507   20.3560 C   0  0  0  0  0  0  0  0  0  0  0  0
    6.7167    7.3784   21.7098 N   0  0  0  0  0  0  0  0  0  0  0  0
    6.7520    6.0768   22.4545 C   0  0  0  0  0  0  0  0  0  0  0  0
    6.1454    4.8476   21.8455 O   0  0  0  0  0  0  0  0  0  0  0  0
    7.1149    8.1852   22.1095 H   0  0  0  0  0  0  0  0  0  0  0  0
 32 33  1  0  0  0
 33 34  1  0  0  0
 34 35  2  0  0  0
 34 29  1  0  0  0
 29  1  1  0  0  0
  1  2  1  0  0  0
  3  2  1  0  0  0
  3  4  1  0  0  0
  4  5  2  0  0  0
  4  6  1  0  0  0
  6 19  1  0  0  0
 19 20  2  0  0  0
 20 21  1  0  0  0
 21 22  2  0  0  0
 22 23  1  0  0  0
 23 24  2  0  0  0
 24 25  1  0  0  0
 25 26  2  0  0  0
 26 27  1  0  0  0
 27 28  2  0  0  0
  6  7  1  0  0  0
  7  8  1  0  0  0
  8  9  1  0  0  0
  3 10  1  0  0  0
 10 11  2  0  0  0
 11 12  1  0  0  0
 12 13  1  0  0  0
 12 14  2  0  0  0
 14 15  1  0  0  0
 15 16  2  0  0  0
 16 17  1  0  0  0
 17 18  2  0  0  0
 29 30  1  0  0  0
 30 31  1  0  0  0
 31 29  1  0  0  0
 17  1  1  0  0  0
  8  3  1  0  0  0
 16 10  1  0  0  0
 28 19  1  0  0  0
 28 23  1  0  0  0
 33 36  1  0  0  0
M  END
> <minimizedAffinity>
-7.51646

> <CNNscore>
0.3609064221

> <CNNaffinity>
6.5022287369

> <CNN_VS>
2.3466961384

> <CNNaffinity_variance>
0.1728403121

$$$$



 36 41  0  0  0  0  0  0  0  0999 V2000
   10.6586   -0.8324   23.4276 N   0  0  0  0  0  0  0  0  0  0  0  0
   10.3652    0.6294   23.2626 C   0  0  0  0  0  0  0  0  0  0  0  0
    8.9550    1.1284   23.3729 C   0  0  0  0  0  0  0  0  0  0  0  0
    7.6022    1.7711   23.4560 C   0  0  0  0  0  0  0  0  0  0  0  0
    6.4398    1.4722   23.6452 O   0  0  0  0  0  0  0  0  0  0  0  0
    7.7740    3.2440   23.2303 N   0  0  0  0  0  0  0  0  0  0  0  0
    9.2331    3.5117   23.0076 C   0  0  0  0  0  0  0  0  0  0  0  0
    9.9629    2.2042   23.0958 C   0  0  0  0  0  0  0  0  0  0  0  0
   11.4412    2.0071   22.9350 C   0  0  0  0  0  0  0  0  0  0  0  0
    7.8381    0.1657   23.6482 C   0  0  0  0  0  0  0  0  0  0  0  0
    6.4279    0.6647   23.7585 C   0  0  0  0  0  0  0  0  0  0  0  0
    5.3110   -0.2980   24.0338 C   0  0  0  0  0  0  0  0  0  0  0  0
    3.9007    0.2011   24.1441 Cl  0  0  0  0  0  0  0  0  0  0  0  0
    5.6044   -1.7597   24.1988 C   0  0  0  0  0  0  0  0  0  0  0  0
    7.0146   -2.2587   24.0885 C   0  0  0  0  0  0  0  0  0  0  0  0
    8.1315   -1.2960   23.8132 C   0  0  0  0  0  0  0  0  0  0  0  0
    9.5418   -1.7951   23.7029 C   0  0  0  0  0  0  0  0  0  0  0  0
    9.8351   -3.2568   23.8679 O   0  0  0  0  0  0  0  0  0  0  0  0
    6.6791    4.2692   23.2276 C   0  0  0  0  0  0  0  0  0  0  0  0
    6.1629    4.8120   21.9280 C   0  0  0  0  0  0  0  0  0  0  0  0
    5.0680    5.8372   21.9254 N   0  0  0  0  0  0  0  0  0  0  0  0
    4.4892    6.3196   23.2224 C   0  0  0  0  0  0  0  0  0  0  0  0
    5.0053    5.7768   24.5220 C   0  0  0  0  0  0  0  0  0  0  0  0
    4.4264    6.2592   25.8191 C   0  0  0  0  0  0  0  0  0  0  0  0
    4.9426    5.7164   27.1186 C   0  0  0  0  0  0  0  0  0  0  0  0
    6.0376    4.6912   27.1213 C   0  0  0  0  0  0  0  0  0  0  0  0
    6.6164    4.2088   25.8243 C   0  0  0  0  0  0  0  0  0  0  0  0
    6.1002    4.7516   24.5246 C   0  0  0  0  0  0  0  0  0  0  0  0
   12.0689   -1.3314   23.3173 C   0  0  0  0  0  0  0  0  0  0  0  0
   13.3696   -1.7564   22.7029 C   0  0  0  0  0  0  0  0  0  0  0  0
   12.2434   -1.2917   21.8280 C   0  0  0  0  0  0  0  0  0  0  0  0
   13.9380   -2.5044   26.6157 C   0  0  0  0  0  0  0  0  0  0  0  0
   13.6228   -2.2914   25.1647 N   0  0  0  0  0  0  0  0  0  0  0  0
   12.3840   -1.5444   24.7682 C   0  0  0  0  0  0  0  0  0  0  0  0
   11.4605   -1.0104   25.8226 O   0  0  0  0  0  0  0  0  0  0  0  0
   14.2290   -2.6419   24.4727 H   0  0  0  0  0  0  0  0  0  0  0  0
 32 33  1  0  0  0
 33 34  1  0  0  0
 34 35  2  0  0  0
 34 29  1  0  0  0
 29  1  1  0  0  0
  1  2  1  0  0  0
  3  2  1  0  0  0
  3  4  1  0  0  0
  4  5  2  0  0  0
  4  6  1  0  0  0
  6 19  1  0  0  0
 19 20  2  0  0  0
 20 21  1  0  0  0
 21 22  2  0  0  0
 22 23  1  0  0  0
 23 24  2  0  0  0
 24 25  1  0  0  0
 25 26  2  0  0  0
 26 27  1  0  0  0
 27 28  2  0  0  0
  6  7  1  0  0  0
  7  8  1  0  0  0
  8  9  1  0  0  0
  3 10  1  0  0  0
 10 11  2  0  0  0
 11 12  1  0  0  0
 12 13  1  0  0  0
 12 14  2  0  0  0
 14 15  1  0  0  0
 15 16  2  0  0  0
 16 17  1  0  0  0
 17 18  2  0  0  0
 29 30  1  0  0  0
 30 31  1  0  0  0
 31 29  1  0  0  0
 17  1  1  0  0  0
  8  3  1  0  0  0
 16 10  1  0  0  0
 28 19  1  0  0  0
 28 23  1  0  0  0
 33 36  1  0  0  0
M  END
> <minimizedAffinity>
-7.12280

> <CNNscore>
0.3482524455

> <CNNaffinity>
6.6890320778

> <CNN_VS>
2.3294718266

> <CNNaffinity_variance>
0.0749318823

$$$$



 36 41  0  0  0  0  0  0  0  0999 V2000
   10.7497   -0.9790   23.6918 N   0  0  0  0  0  0  0  0  0  0  0  0
   10.3558    0.4552   23.4970 C   0  0  0  0  0  0  0  0  0  0  0  0
    8.9463    0.8896   23.7703 C   0  0  0  0  0  0  0  0  0  0  0  0
    7.5821    1.4685   24.0021 C   0  0  0  0  0  0  0  0  0  0  0  0
    6.4730    1.1237   24.3589 O   0  0  0  0  0  0  0  0  0  0  0  0
    7.6401    2.9333   23.6846 N   0  0  0  0  0  0  0  0  0  0  0  0
    9.0401    3.2598   23.2566 C   0  0  0  0  0  0  0  0  0  0  0  0
    9.8474    1.9967   23.3095 C   0  0  0  0  0  0  0  0  0  0  0  0
   11.3007    1.8640   22.9626 C   0  0  0  0  0  0  0  0  0  0  0  0
    7.9307   -0.1103   24.2383 C   0  0  0  0  0  0  0  0  0  0  0  0
    6.5213    0.3241   24.5116 C   0  0  0  0  0  0  0  0  0  0  0  0
    5.5058   -0.6757   24.9797 C   0  0  0  0  0  0  0  0  0  0  0  0
    4.0963   -0.2413   25.2530 Cl  0  0  0  0  0  0  0  0  0  0  0  0
    5.8997   -2.1099   25.1744 C   0  0  0  0  0  0  0  0  0  0  0  0
    7.3092   -2.5442   24.9011 C   0  0  0  0  0  0  0  0  0  0  0  0
    8.3247   -1.5444   24.4331 C   0  0  0  0  0  0  0  0  0  0  0  0
    9.7342   -1.9788   24.1598 C   0  0  0  0  0  0  0  0  0  0  0  0
   10.1282   -3.4130   24.3546 O   0  0  0  0  0  0  0  0  0  0  0  0
    6.4984    3.9017   23.7786 C   0  0  0  0  0  0  0  0  0  0  0  0
    6.4393    4.8840   24.9107 C   0  0  0  0  0  0  0  0  0  0  0  0
    5.2977    5.8523   25.0048 N   0  0  0  0  0  0  0  0  0  0  0  0
    4.2150    5.8384   23.9667 C   0  0  0  0  0  0  0  0  0  0  0  0
    4.2741    4.8562   22.8345 C   0  0  0  0  0  0  0  0  0  0  0  0
    3.1914    4.8423   21.7963 C   0  0  0  0  0  0  0  0  0  0  0  0
    3.2505    3.8601   20.6642 C   0  0  0  0  0  0  0  0  0  0  0  0
    4.3922    2.8917   20.5702 C   0  0  0  0  0  0  0  0  0  0  0  0
    5.4748    2.9056   21.6083 C   0  0  0  0  0  0  0  0  0  0  0  0
    5.4158    3.8878   22.7405 C   0  0  0  0  0  0  0  0  0  0  0  0
   12.1593   -1.4134   23.4184 C   0  0  0  0  0  0  0  0  0  0  0  0
   13.3911   -1.8045   22.6572 C   0  0  0  0  0  0  0  0  0  0  0  0
   12.1374   -1.4398   21.9189 C   0  0  0  0  0  0  0  0  0  0  0  0
   14.3127   -2.5987   26.5341 C   0  0  0  0  0  0  0  0  0  0  0  0
   13.8014   -2.4742   25.1294 N   0  0  0  0  0  0  0  0  0  0  0  0
   12.6704   -1.5377   24.8231 C   0  0  0  0  0  0  0  0  0  0  0  0
   12.0507   -0.7257   25.9215 O   0  0  0  0  0  0  0  0  0  0  0  0
   14.2082   -3.0072   24.4085 H   0  0  0  0  0  0  0  0  0  0  0  0
 32 33  1  0  0  0
 33 34  1  0  0  0
 34 35  2  0  0  0
 34 29  1  0  0  0
 29  1  1  0  0  0
  1  2  1  0  0  0
  3  2  1  0  0  0
  3  4  1  0  0  0
  4  5  2  0  0  0
  4  6  1  0  0  0
  6 19  1  0  0  0
 19 20  2  0  0  0
 20 21  1  0  0  0
 21 22  2  0  0  0
 22 23  1  0  0  0
 23 24  2  0  0  0
 24 25  1  0  0  0
 25 26  2  0  0  0
 26 27  1  0  0  0
 27 28  2  0  0  0
  6  7  1  0  0  0
  7  8  1  0  0  0
  8  9  1  0  0  0
  3 10  1  0  0  0
 10 11  2  0  0  0
 11 12  1  0  0  0
 12 13  1  0  0  0
 12 14  2  0  0  0
 14 15  1  0  0  0
 15 16  2  0  0  0
 16 17  1  0  0  0
 17 18  2  0  0  0
 29 30  1  0  0  0
 30 31  1  0  0  0
 31 29  1  0  0  0
 17  1  1  0  0  0
  8  3  1  0  0  0
 16 10  1  0  0  0
 28 19  1  0  0  0
 28 23  1  0  0  0
 33 36  1  0  0  0
M  END
> <minimizedAffinity>
-7.67757

> <CNNscore>
0.3467395306

> <CNNaffinity>
6.7233910561

> <CNN_VS>
2.3312654495

> <CNNaffinity_variance>
0.0876688808

$$$$



 36 41  0  0  0  0  0  0  0  0999 V2000
    9.9285    1.0501   23.7660 N   0  0  0  0  0  0  0  0  0  0  0  0
    8.6179    0.6972   24.4045 C   0  0  0  0  0  0  0  0  0  0  0  0
    8.4949   -0.5542   25.2224 C   0  0  0  0  0  0  0  0  0  0  0  0
    8.2217   -1.7657   26.0635 C   0  0  0  0  0  0  0  0  0  0  0  0
    8.7924   -2.7488   26.4927 O   0  0  0  0  0  0  0  0  0  0  0  0
    6.7853   -1.7178   26.4928 N   0  0  0  0  0  0  0  0  0  0  0  0
    6.1706   -0.4766   25.9170 C   0  0  0  0  0  0  0  0  0  0  0  0
    7.2272    0.2426   25.1318 C   0  0  0  0  0  0  0  0  0  0  0  0
    7.0476    1.5321   24.3869 C   0  0  0  0  0  0  0  0  0  0  0  0
    9.6825   -1.4527   25.4018 C   0  0  0  0  0  0  0  0  0  0  0  0
    9.5595   -2.7040   26.2197 C   0  0  0  0  0  0  0  0  0  0  0  0
   10.7471   -3.6025   26.3991 C   0  0  0  0  0  0  0  0  0  0  0  0
   10.6242   -4.8539   27.2170 Cl  0  0  0  0  0  0  0  0  0  0  0  0
   12.0578   -3.2497   25.7606 C   0  0  0  0  0  0  0  0  0  0  0  0
   12.1808   -1.9983   24.9427 C   0  0  0  0  0  0  0  0  0  0  0  0
   10.9932   -1.0998   24.7633 C   0  0  0  0  0  0  0  0  0  0  0  0
   11.1162    0.1516   23.9454 C   0  0  0  0  0  0  0  0  0  0  0  0
   12.4268    0.5045   23.3069 O   0  0  0  0  0  0  0  0  0  0  0  0
    6.0862   -2.7329   27.3478 C   0  0  0  0  0  0  0  0  0  0  0  0
    5.9859   -2.5238   28.8298 C   0  0  0  0  0  0  0  0  0  0  0  0
    5.2869   -3.5389   29.6847 N   0  0  0  0  0  0  0  0  0  0  0  0
    4.6882   -4.7630   29.0577 C   0  0  0  0  0  0  0  0  0  0  0  0
    4.7885   -4.9720   27.5757 C   0  0  0  0  0  0  0  0  0  0  0  0
    4.1898   -6.1961   26.9487 C   0  0  0  0  0  0  0  0  0  0  0  0
    4.2901   -6.4051   25.4667 C   0  0  0  0  0  0  0  0  0  0  0  0
    4.9892   -5.3900   24.6118 C   0  0  0  0  0  0  0  0  0  0  0  0
    5.5879   -4.1659   25.2388 C   0  0  0  0  0  0  0  0  0  0  0  0
    5.4875   -3.9569   26.7208 C   0  0  0  0  0  0  0  0  0  0  0  0
   10.0515    2.3015   22.9481 C   0  0  0  0  0  0  0  0  0  0  0  0
   10.5921    3.6042   22.4376 C   0  0  0  0  0  0  0  0  0  0  0  0
   11.2965    2.8839   23.5489 C   0  0  0  0  0  0  0  0  0  0  0  0
    6.5982    3.0777   21.1533 C   0  0  0  0  0  0  0  0  0  0  0  0
    7.8005    3.2256   22.0380 N   0  0  0  0  0  0  0  0  0  0  0  0
    8.8493    2.1535   22.0634 C   0  0  0  0  0  0  0  0  0  0  0  0
    8.6959    0.9337   21.2041 O   0  0  0  0  0  0  0  0  0  0  0  0
    7.9011    4.0262   22.6020 H   0  0  0  0  0  0  0  0  0  0  0  0
 32 33  1  0  0  0
 33 34  1  0  0  0
 34 35  2  0  0  0
 34 29  1  0  0  0
 29  1  1  0  0  0
  1  2  1  0  0  0
  3  2  1  0  0  0
  3  4  1  0  0  0
  4  5  2  0  0  0
  4  6  1  0  0  0
  6 19  1  0  0  0
 19 20  2  0  0  0
 20 21  1  0  0  0
 21 22  2  0  0  0
 22 23  1  0  0  0
 23 24  2  0  0  0
 24 25  1  0  0  0
 25 26  2  0  0  0
 26 27  1  0  0  0
 27 28  2  0  0  0
  6  7  1  0  0  0
  7  8  1  0  0  0
  8  9  1  0  0  0
  3 10  1  0  0  0
 10 11  2  0  0  0
 11 12  1  0  0  0
 12 13  1  0  0  0
 12 14  2  0  0  0
 14 15  1  0  0  0
 15 16  2  0  0  0
 16 17  1  0  0  0
 17 18  2  0  0  0
 29 30  1  0  0  0
 30 31  1  0  0  0
 31 29  1  0  0  0
 17  1  1  0  0  0
  8  3  1  0  0  0
 16 10  1  0  0  0
 28 19  1  0  0  0
 28 23  1  0  0  0
 33 36  1  0  0  0
M  END
> <minimizedAffinity>
-7.69077

> <CNNscore>
0.3415976167

> <CNNaffinity>
6.4892854691

> <CNN_VS>
2.2167243958

> <CNNaffinity_variance>
0.1654814184

$$$$



 36 41  0  0  0  0  0  0  0  0999 V2000
    6.9821    4.4250   23.6895 N   0  0  0  0  0  0  0  0  0  0  0  0
    7.7382    3.1767   23.3430 C   0  0  0  0  0  0  0  0  0  0  0  0
    7.6634    1.9800   24.2442 C   0  0  0  0  0  0  0  0  0  0  0  0
    7.6849    0.7114   25.0443 C   0  0  0  0  0  0  0  0  0  0  0  0
    7.2197    0.2477   26.0665 O   0  0  0  0  0  0  0  0  0  0  0  0
    8.5655   -0.2715   24.3313 N   0  0  0  0  0  0  0  0  0  0  0  0
    9.0884    0.3896   23.0905 C   0  0  0  0  0  0  0  0  0  0  0  0
    8.5309    1.7811   23.0367 C   0  0  0  0  0  0  0  0  0  0  0  0
    8.7945    2.7957   21.9638 C   0  0  0  0  0  0  0  0  0  0  0  0
    6.8326    2.0316   25.4921 C   0  0  0  0  0  0  0  0  0  0  0  0
    6.7578    0.8349   26.3933 C   0  0  0  0  0  0  0  0  0  0  0  0
    5.9270    0.8865   27.6411 C   0  0  0  0  0  0  0  0  0  0  0  0
    5.8522   -0.3102   28.5424 Cl  0  0  0  0  0  0  0  0  0  0  0  0
    5.1709    2.1348   27.9876 C   0  0  0  0  0  0  0  0  0  0  0  0
    5.2457    3.3315   27.0864 C   0  0  0  0  0  0  0  0  0  0  0  0
    6.0765    3.2799   25.8386 C   0  0  0  0  0  0  0  0  0  0  0  0
    6.1513    4.4766   24.9373 C   0  0  0  0  0  0  0  0  0  0  0  0
    5.3953    5.7250   25.2838 O   0  0  0  0  0  0  0  0  0  0  0  0
    8.8698   -1.6700   24.7803 C   0  0  0  0  0  0  0  0  0  0  0  0
    7.8069   -2.7264   24.7159 C   0  0  0  0  0  0  0  0  0  0  0  0
    8.1112   -4.1249   25.1649 N   0  0  0  0  0  0  0  0  0  0  0  0
    9.4784   -4.4670   25.6782 C   0  0  0  0  0  0  0  0  0  0  0  0
   10.5414   -3.4106   25.7426 C   0  0  0  0  0  0  0  0  0  0  0  0
   11.9087   -3.7527   26.2559 C   0  0  0  0  0  0  0  0  0  0  0  0
   12.9716   -2.6962   26.3202 C   0  0  0  0  0  0  0  0  0  0  0  0
   12.6673   -1.2977   25.8713 C   0  0  0  0  0  0  0  0  0  0  0  0
   11.3000   -0.9557   25.3580 C   0  0  0  0  0  0  0  0  0  0  0  0
   10.2371   -2.0121   25.2936 C   0  0  0  0  0  0  0  0  0  0  0  0
    7.0570    5.6218   22.7882 C   0  0  0  0  0  0  0  0  0  0  0  0
    6.6892    6.6035   21.7154 C   0  0  0  0  0  0  0  0  0  0  0  0
    5.8089    5.4185   21.9813 C   0  0  0  0  0  0  0  0  0  0  0  0
   10.7556    7.0596   22.8348 C   0  0  0  0  0  0  0  0  0  0  0  0
    9.4816    6.4407   22.3409 N   0  0  0  0  0  0  0  0  0  0  0  0
    8.3309    6.2406   23.2822 C   0  0  0  0  0  0  0  0  0  0  0  0
    8.4543    6.6592   24.7172 O   0  0  0  0  0  0  0  0  0  0  0  0
    9.4006    6.1660   21.3990 H   0  0  0  0  0  0  0  0  0  0  0  0
 32 33  1  0  0  0
 33 34  1  0  0  0
 34 35  2  0  0  0
 34 29  1  0  0  0
 29  1  1  0  0  0
  1  2  1  0  0  0
  3  2  1  0  0  0
  3  4  1  0  0  0
  4  5  2  0  0  0
  4  6  1  0  0  0
  6 19  1  0  0  0
 19 20  2  0  0  0
 20 21  1  0  0  0
 21 22  2  0  0  0
 22 23  1  0  0  0
 23 24  2  0  0  0
 24 25  1  0  0  0
 25 26  2  0  0  0
 26 27  1  0  0  0
 27 28  2  0  0  0
  6  7  1  0  0  0
  7  8  1  0  0  0
  8  9  1  0  0  0
  3 10  1  0  0  0
 10 11  2  0  0  0
 11 12  1  0  0  0
 12 13  1  0  0  0
 12 14  2  0  0  0
 14 15  1  0  0  0
 15 16  2  0  0  0
 16 17  1  0  0  0
 17 18  2  0  0  0
 29 30  1  0  0  0
 30 31  1  0  0  0
 31 29  1  0  0  0
 17  1  1  0  0  0
  8  3  1  0  0  0
 16 10  1  0  0  0
 28 19  1  0  0  0
 28 23  1  0  0  0
 33 36  1  0  0  0
M  END
> <minimizedAffinity>
-7.59591

> <CNNscore>
0.3194292784

> <CNNaffinity>
6.1962547302

> <CNN_VS>
1.9792652130

> <CNNaffinity_variance>
0.2170970738

$$$$



 36 41  0  0  0  0  0  0  0  0999 V2000
    6.9737   -3.7404   23.6089 N   0  0  0  0  0  0  0  0  0  0  0  0
    7.1264   -2.3542   23.0564 C   0  0  0  0  0  0  0  0  0  0  0  0
    8.3588   -1.5561   23.3634 C   0  0  0  0  0  0  0  0  0  0  0  0
    9.5284   -0.6432   23.5835 C   0  0  0  0  0  0  0  0  0  0  0  0
   10.5985   -0.6234   24.1589 O   0  0  0  0  0  0  0  0  0  0  0  0
    9.2613    0.6377   22.8500 N   0  0  0  0  0  0  0  0  0  0  0  0
    7.9264    0.5164   22.1766 C   0  0  0  0  0  0  0  0  0  0  0  0
    7.3687   -0.8394   22.4939 C   0  0  0  0  0  0  0  0  0  0  0  0
    6.0520   -1.3830   22.0241 C   0  0  0  0  0  0  0  0  0  0  0  0
    9.4384   -2.1441   24.2229 C   0  0  0  0  0  0  0  0  0  0  0  0
   10.6708   -1.3460   24.5298 C   0  0  0  0  0  0  0  0  0  0  0  0
   11.7504   -1.9341   25.3892 C   0  0  0  0  0  0  0  0  0  0  0  0
   12.9828   -1.1360   25.6963 Cl  0  0  0  0  0  0  0  0  0  0  0  0
   11.5976   -3.3203   25.9417 C   0  0  0  0  0  0  0  0  0  0  0  0
   10.3653   -4.1184   25.6347 C   0  0  0  0  0  0  0  0  0  0  0  0
    9.2857   -3.5303   24.7753 C   0  0  0  0  0  0  0  0  0  0  0  0
    8.0532   -4.3284   24.4683 C   0  0  0  0  0  0  0  0  0  0  0  0
    7.9005   -5.7146   25.0207 O   0  0  0  0  0  0  0  0  0  0  0  0
   10.1695    1.8304   22.7989 C   0  0  0  0  0  0  0  0  0  0  0  0
   11.6373    1.6454   22.5516 C   0  0  0  0  0  0  0  0  0  0  0  0
   12.5455    2.8381   22.5005 N   0  0  0  0  0  0  0  0  0  0  0  0
   11.9859    4.2158   22.6968 C   0  0  0  0  0  0  0  0  0  0  0  0
   10.5180    4.4009   22.9442 C   0  0  0  0  0  0  0  0  0  0  0  0
    9.9584    5.7787   23.1405 C   0  0  0  0  0  0  0  0  0  0  0  0
    8.4905    5.9637   23.3879 C   0  0  0  0  0  0  0  0  0  0  0  0
    7.5823    4.7710   23.4389 C   0  0  0  0  0  0  0  0  0  0  0  0
    8.1420    3.3932   23.2426 C   0  0  0  0  0  0  0  0  0  0  0  0
    9.6098    3.2082   22.9952 C   0  0  0  0  0  0  0  0  0  0  0  0
    5.7412   -4.5385   23.3018 C   0  0  0  0  0  0  0  0  0  0  0  0
    4.7895   -5.4353   22.5671 C   0  0  0  0  0  0  0  0  0  0  0  0
    6.1212   -5.0998   21.9638 C   0  0  0  0  0  0  0  0  0  0  0  0
    3.2051   -5.0182   26.3165 C   0  0  0  0  0  0  0  0  0  0  0  0
    4.0130   -5.3024   25.0849 N   0  0  0  0  0  0  0  0  0  0  0  0
    4.9334   -4.2542   24.5333 C   0  0  0  0  0  0  0  0  0  0  0  0
    5.0459   -2.9219   25.2132 O   0  0  0  0  0  0  0  0  0  0  0  0
    3.9392   -6.1768   24.6387 H   0  0  0  0  0  0  0  0  0  0  0  0
 32 33  1  0  0  0
 33 34  1  0  0  0
 34 35  2  0  0  0
 34 29  1  0  0  0
 29  1  1  0  0  0
  1  2  1  0  0  0
  3  2  1  0  0  0
  3  4  1  0  0  0
  4  5  2  0  0  0
  4  6  1  0  0  0
  6 19  1  0  0  0
 19 20  2  0  0  0
 20 21  1  0  0  0
 21 22  2  0  0  0
 22 23  1  0  0  0
 23 24  2  0  0  0
 24 25  1  0  0  0
 25 26  2  0  0  0
 26 27  1  0  0  0
 27 28  2  0  0  0
  6  7  1  0  0  0
  7  8  1  0  0  0
  8  9  1  0  0  0
  3 10  1  0  0  0
 10 11  2  0  0  0
 11 12  1  0  0  0
 12 13  1  0  0  0
 12 14  2  0  0  0
 14 15  1  0  0  0
 15 16  2  0  0  0
 16 17  1  0  0  0
 17 18  2  0  0  0
 29 30  1  0  0  0
 30 31  1  0  0  0
 31 29  1  0  0  0
 17  1  1  0  0  0
  8  3  1  0  0  0
 16 10  1  0  0  0
 28 19  1  0  0  0
 28 23  1  0  0  0
 33 36  1  0  0  0
M  END
> <minimizedAffinity>
-7.48165

> <CNNscore>
0.2920567989

> <CNNaffinity>
6.5349745750

> <CNN_VS>
1.9085837603

> <CNNaffinity_variance>
0.1769115478

$$$$



 36 41  0  0  0  0  0  0  0  0999 V2000
    3.7923   -4.8085   26.4469 N   0  0  0  0  0  0  0  0  0  0  0  0
    5.0482   -4.9965   25.6485 C   0  0  0  0  0  0  0  0  0  0  0  0
    5.9770   -3.8396   25.4280 C   0  0  0  0  0  0  0  0  0  0  0  0
    6.9963   -2.7815   25.1257 C   0  0  0  0  0  0  0  0  0  0  0  0
    7.2062   -1.6036   25.3375 O   0  0  0  0  0  0  0  0  0  0  0  0
    8.0834   -3.4067   24.3025 N   0  0  0  0  0  0  0  0  0  0  0  0
    7.7359   -4.8512   24.0962 C   0  0  0  0  0  0  0  0  0  0  0  0
    6.4341   -5.1187   24.7917 C   0  0  0  0  0  0  0  0  0  0  0  0
    5.7156   -6.4345   24.8422 C   0  0  0  0  0  0  0  0  0  0  0  0
    5.6500   -2.4945   26.0060 C   0  0  0  0  0  0  0  0  0  0  0  0
    6.5789   -1.3376   25.7855 C   0  0  0  0  0  0  0  0  0  0  0  0
    6.2519    0.0074   26.3634 C   0  0  0  0  0  0  0  0  0  0  0  0
    7.1808    1.1645   26.1429 Cl  0  0  0  0  0  0  0  0  0  0  0  0
    4.9960    0.1954   27.1618 C   0  0  0  0  0  0  0  0  0  0  0  0
    4.0672   -0.9615   27.3823 C   0  0  0  0  0  0  0  0  0  0  0  0
    4.3942   -2.3065   26.8044 C   0  0  0  0  0  0  0  0  0  0  0  0
    3.4653   -3.4635   27.0248 C   0  0  0  0  0  0  0  0  0  0  0  0
    2.2095   -3.2755   27.8232 O   0  0  0  0  0  0  0  0  0  0  0  0
    9.3036   -2.7097   23.7779 C   0  0  0  0  0  0  0  0  0  0  0  0
    9.2449   -1.9770   22.4704 C   0  0  0  0  0  0  0  0  0  0  0  0
   10.4652   -1.2800   21.9458 N   0  0  0  0  0  0  0  0  0  0  0  0
   11.7441   -1.3157   22.7287 C   0  0  0  0  0  0  0  0  0  0  0  0
   11.8028   -2.0484   24.0363 C   0  0  0  0  0  0  0  0  0  0  0  0
   13.0818   -2.0842   24.8193 C   0  0  0  0  0  0  0  0  0  0  0  0
   13.1404   -2.8169   26.1268 C   0  0  0  0  0  0  0  0  0  0  0  0
   11.9201   -3.5139   26.6514 C   0  0  0  0  0  0  0  0  0  0  0  0
   10.6412   -3.4782   25.8685 C   0  0  0  0  0  0  0  0  0  0  0  0
   10.5825   -2.7454   24.5609 C   0  0  0  0  0  0  0  0  0  0  0  0
    2.8635   -5.9655   26.6674 C   0  0  0  0  0  0  0  0  0  0  0  0
    2.2438   -7.1741   27.3040 C   0  0  0  0  0  0  0  0  0  0  0  0
    3.4310   -6.5158   27.9421 C   0  0  0  0  0  0  0  0  0  0  0  0
    1.4312   -6.3631   22.9877 C   0  0  0  0  0  0  0  0  0  0  0  0
    2.3212   -6.5117   24.1860 N   0  0  0  0  0  0  0  0  0  0  0  0
    1.9734   -5.8170   25.4691 C   0  0  0  0  0  0  0  0  0  0  0  0
    0.7358   -4.9738   25.5540 O   0  0  0  0  0  0  0  0  0  0  0  0
    3.1335   -7.0651   24.1303 H   0  0  0  0  0  0  0  0  0  0  0  0
 32 33  1  0  0  0
 33 34  1  0  0  0
 34 35  2  0  0  0
 34 29  1  0  0  0
 29  1  1  0  0  0
  1  2  1  0  0  0
  3  2  1  0  0  0
  3  4  1  0  0  0
  4  5  2  0  0  0
  4  6  1  0  0  0
  6 19  1  0  0  0
 19 20  2  0  0  0
 20 21  1  0  0  0
 21 22  2  0  0  0
 22 23  1  0  0  0
 23 24  2  0  0  0
 24 25  1  0  0  0
 25 26  2  0  0  0
 26 27  1  0  0  0
 27 28  2  0  0  0
  6  7  1  0  0  0
  7  8  1  0  0  0
  8  9  1  0  0  0
  3 10  1  0  0  0
 10 11  2  0  0  0
 11 12  1  0  0  0
 12 13  1  0  0  0
 12 14  2  0  0  0
 14 15  1  0  0  0
 15 16  2  0  0  0
 16 17  1  0  0  0
 17 18  2  0  0  0
 29 30  1  0  0  0
 30 31  1  0  0  0
 31 29  1  0  0  0
 17  1  1  0  0  0
  8  3  1  0  0  0
 16 10  1  0  0  0
 28 19  1  0  0  0
 28 23  1  0  0  0
 33 36  1  0  0  0
M  END
> <minimizedAffinity>
-7.53872

> <CNNscore>
0.2821044326

> <CNNaffinity>
6.3744134903

> <CNN_VS>
1.7982503176

> <CNNaffinity_variance>
0.0960169807

$$$$



 36 41  0  0  0  0  0  0  0  0999 V2000
    5.2382    1.0839   20.9617 N   0  0  0  0  0  0  0  0  0  0  0  0
    6.6218    0.5059   20.9999 C   0  0  0  0  0  0  0  0  0  0  0  0
    7.3153    0.3066   22.3149 C   0  0  0  0  0  0  0  0  0  0  0  0
    8.1301    0.0506   23.5480 C   0  0  0  0  0  0  0  0  0  0  0  0
    8.0535    0.1669   24.7551 O   0  0  0  0  0  0  0  0  0  0  0  0
    9.4455   -0.5310   23.1220 N   0  0  0  0  0  0  0  0  0  0  0  0
    9.4436   -0.6345   21.6256 C   0  0  0  0  0  0  0  0  0  0  0  0
    8.1271   -0.1169   21.1268 C   0  0  0  0  0  0  0  0  0  0  0  0
    7.6977   -0.0367   19.6918 C   0  0  0  0  0  0  0  0  0  0  0  0
    6.6251    0.6852   23.5918 C   0  0  0  0  0  0  0  0  0  0  0  0
    7.3185    0.4859   24.9068 C   0  0  0  0  0  0  0  0  0  0  0  0
    6.6283    0.8645   26.1836 C   0  0  0  0  0  0  0  0  0  0  0  0
    7.3218    0.6651   27.4987 Cl  0  0  0  0  0  0  0  0  0  0  0  0
    5.2447    1.4424   26.1454 C   0  0  0  0  0  0  0  0  0  0  0  0
    4.5512    1.6417   24.8304 C   0  0  0  0  0  0  0  0  0  0  0  0
    5.2414    1.2631   23.5536 C   0  0  0  0  0  0  0  0  0  0  0  0
    4.5480    1.4625   22.2384 C   0  0  0  0  0  0  0  0  0  0  0  0
    3.1643    2.0404   22.2002 O   0  0  0  0  0  0  0  0  0  0  0  0
   10.5660   -0.9377   24.0325 C   0  0  0  0  0  0  0  0  0  0  0  0
   11.7738   -0.0596   24.1740 C   0  0  0  0  0  0  0  0  0  0  0  0
   12.8943   -0.4663   25.0845 N   0  0  0  0  0  0  0  0  0  0  0  0
   12.8070   -1.7512   25.8536 C   0  0  0  0  0  0  0  0  0  0  0  0
   11.5991   -2.6293   25.7121 C   0  0  0  0  0  0  0  0  0  0  0  0
   11.5118   -3.9142   26.4812 C   0  0  0  0  0  0  0  0  0  0  0  0
   10.3039   -4.7923   26.3397 C   0  0  0  0  0  0  0  0  0  0  0  0
    9.1834   -4.3856   25.4292 C   0  0  0  0  0  0  0  0  0  0  0  0
    9.2708   -3.1007   24.6601 C   0  0  0  0  0  0  0  0  0  0  0  0
   10.4786   -2.2226   24.8016 C   0  0  0  0  0  0  0  0  0  0  0  0
    4.5447    1.2832   19.6465 C   0  0  0  0  0  0  0  0  0  0  0  0
    3.7391    1.9358   18.5626 C   0  0  0  0  0  0  0  0  0  0  0  0
    3.9810    2.6575   19.8551 C   0  0  0  0  0  0  0  0  0  0  0  0
    5.1592   -2.6004   19.1085 C   0  0  0  0  0  0  0  0  0  0  0  0
    4.8363   -1.2953   19.7736 N   0  0  0  0  0  0  0  0  0  0  0  0
    4.8676   -0.0219   18.9814 C   0  0  0  0  0  0  0  0  0  0  0  0
    5.2219   -0.0537   17.5242 O   0  0  0  0  0  0  0  0  0  0  0  0
    4.6038   -1.2744   20.7300 H   0  0  0  0  0  0  0  0  0  0  0  0
 32 33  1  0  0  0
 33 34  1  0  0  0
 34 35  2  0  0  0
 34 29  1  0  0  0
 29  1  1  0  0  0
  1  2  1  0  0  0
  3  2  1  0  0  0
  3  4  1  0  0  0
  4  5  2  0  0  0
  4  6  1  0  0  0
  6 19  1  0  0  0
 19 20  2  0  0  0
 20 21  1  0  0  0
 21 22  2  0  0  0
 22 23  1  0  0  0
 23 24  2  0  0  0
 24 25  1  0  0  0
 25 26  2  0  0  0
 26 27  1  0  0  0
 27 28  2  0  0  0
  6  7  1  0  0  0
  7  8  1  0  0  0
  8  9  1  0  0  0
  3 10  1  0  0  0
 10 11  2  0  0  0
 11 12  1  0  0  0
 12 13  1  0  0  0
 12 14  2  0  0  0
 14 15  1  0  0  0
 15 16  2  0  0  0
 16 17  1  0  0  0
 17 18  2  0  0  0
 29 30  1  0  0  0
 30 31  1  0  0  0
 31 29  1  0  0  0
 17  1  1  0  0  0
  8  3  1  0  0  0
 16 10  1  0  0  0
 28 19  1  0  0  0
 28 23  1  0  0  0
 33 36  1  0  0  0
M  END
> <minimizedAffinity>
-7.07968

> <CNNscore>
0.2807844579

> <CNNaffinity>
6.4509353638

> <CNN_VS>
1.8113223314

> <CNNaffinity_variance>
0.1200942993

$$$$



 36 41  0  0  0  0  0  0  0  0999 V2000
    5.7922    3.1422   23.1625 N   0  0  0  0  0  0  0  0  0  0  0  0
    6.9006    2.1332   23.1032 C   0  0  0  0  0  0  0  0  0  0  0  0
    7.0741    1.1434   24.2167 C   0  0  0  0  0  0  0  0  0  0  0  0
    7.3700    0.0969   25.2499 C   0  0  0  0  0  0  0  0  0  0  0  0
    6.9522   -0.2990   26.3199 O   0  0  0  0  0  0  0  0  0  0  0  0
    8.5599   -0.6895   24.7855 N   0  0  0  0  0  0  0  0  0  0  0  0
    8.9995   -0.1291   23.4654 C   0  0  0  0  0  0  0  0  0  0  0  0
    8.0812    1.0037   23.1139 C   0  0  0  0  0  0  0  0  0  0  0  0
    8.1567    1.8485   21.8767 C   0  0  0  0  0  0  0  0  0  0  0  0
    6.1392    1.1625   25.3897 C   0  0  0  0  0  0  0  0  0  0  0  0
    6.3128    0.1727   26.5033 C   0  0  0  0  0  0  0  0  0  0  0  0
    5.3779    0.1919   27.6761 C   0  0  0  0  0  0  0  0  0  0  0  0
    5.5514   -0.7980   28.7898 Cl  0  0  0  0  0  0  0  0  0  0  0  0
    4.2696    1.2008   27.7355 C   0  0  0  0  0  0  0  0  0  0  0  0
    4.0961    2.1907   26.6219 C   0  0  0  0  0  0  0  0  0  0  0  0
    5.0309    2.1715   25.4490 C   0  0  0  0  0  0  0  0  0  0  0  0
    4.8574    3.1614   24.3353 C   0  0  0  0  0  0  0  0  0  0  0  0
    3.7490    4.1703   24.3946 O   0  0  0  0  0  0  0  0  0  0  0  0
    9.1982   -1.8352   25.5135 C   0  0  0  0  0  0  0  0  0  0  0  0
    8.3418   -2.8753   26.1729 C   0  0  0  0  0  0  0  0  0  0  0  0
    8.9801   -4.0210   26.9009 N   0  0  0  0  0  0  0  0  0  0  0  0
   10.4748   -4.1266   26.9695 C   0  0  0  0  0  0  0  0  0  0  0  0
   11.3312   -3.0864   26.3102 C   0  0  0  0  0  0  0  0  0  0  0  0
   12.8260   -3.1920   26.3788 C   0  0  0  0  0  0  0  0  0  0  0  0
   13.6823   -2.1518   25.7195 C   0  0  0  0  0  0  0  0  0  0  0  0
   13.0440   -1.0061   24.9915 C   0  0  0  0  0  0  0  0  0  0  0  0
   11.5493   -0.9006   24.9228 C   0  0  0  0  0  0  0  0  0  0  0  0
   10.6929   -1.9407   25.5822 C   0  0  0  0  0  0  0  0  0  0  0  0
    5.6187    4.1321   22.0488 C   0  0  0  0  0  0  0  0  0  0  0  0
    5.7993    5.3720   21.2243 C   0  0  0  0  0  0  0  0  0  0  0  0
    6.5777    5.1959   22.4943 C   0  0  0  0  0  0  0  0  0  0  0  0
    2.4178    3.4430   19.8062 C   0  0  0  0  0  0  0  0  0  0  0  0
    3.4371    4.1632   20.6384 N   0  0  0  0  0  0  0  0  0  0  0  0
    4.5995    3.4119   21.2167 C   0  0  0  0  0  0  0  0  0  0  0  0
    4.7425    1.9405   20.9629 O   0  0  0  0  0  0  0  0  0  0  0  0
    3.3432    5.1289   20.8050 H   0  0  0  0  0  0  0  0  0  0  0  0
 32 33  1  0  0  0
 33 34  1  0  0  0
 34 35  2  0  0  0
 34 29  1  0  0  0
 29  1  1  0  0  0
  1  2  1  0  0  0
  3  2  1  0  0  0
  3  4  1  0  0  0
  4  5  2  0  0  0
  4  6  1  0  0  0
  6 19  1  0  0  0
 19 20  2  0  0  0
 20 21  1  0  0  0
 21 22  2  0  0  0
 22 23  1  0  0  0
 23 24  2  0  0  0
 24 25  1  0  0  0
 25 26  2  0  0  0
 26 27  1  0  0  0
 27 28  2  0  0  0
  6  7  1  0  0  0
  7  8  1  0  0  0
  8  9  1  0  0  0
  3 10  1  0  0  0
 10 11  2  0  0  0
 11 12  1  0  0  0
 12 13  1  0  0  0
 12 14  2  0  0  0
 14 15  1  0  0  0
 15 16  2  0  0  0
 16 17  1  0  0  0
 17 18  2  0  0  0
 29 30  1  0  0  0
 30 31  1  0  0  0
 31 29  1  0  0  0
 17  1  1  0  0  0
  8  3  1  0  0  0
 16 10  1  0  0  0
 28 19  1  0  0  0
 28 23  1  0  0  0
 33 36  1  0  0  0
M  END
> <minimizedAffinity>
-7.46150

> <CNNscore>
0.2784970105

> <CNNaffinity>
6.2951192856

> <CNN_VS>
1.7531719208

> <CNNaffinity_variance>
0.1313216537

$$$$
