


 36 41  0  0  0  0  0  0  0  0999 V2000
   -7.6450   -1.7084  -24.9268 N   0  0  0  0  0  0  0  0  0  0  0  0
   -7.9776   -0.2465  -24.9752 C   0  0  0  0  0  0  0  0  0  0  0  0
   -9.3355    0.2282  -24.5503 C   0  0  0  0  0  0  0  0  0  0  0  0
  -10.6442    0.8482  -24.1592 C   0  0  0  0  0  0  0  0  0  0  0  0
  -11.7374    0.5266  -23.7375 O   0  0  0  0  0  0  0  0  0  0  0  0
  -10.5353    2.3299  -24.3655 N   0  0  0  0  0  0  0  0  0  0  0  0
   -9.1592    2.6258  -24.8840 C   0  0  0  0  0  0  0  0  0  0  0  0
   -8.4177    1.3269  -24.9982 C   0  0  0  0  0  0  0  0  0  0  0  0
   -7.0062    1.1565  -25.4765 C   0  0  0  0  0  0  0  0  0  0  0  0
  -10.3610   -0.7589  -24.0770 C   0  0  0  0  0  0  0  0  0  0  0  0
  -11.7189   -0.2842  -23.6521 C   0  0  0  0  0  0  0  0  0  0  0  0
  -12.7444   -1.2714  -23.1789 C   0  0  0  0  0  0  0  0  0  0  0  0
  -14.1024   -0.7967  -22.7540 Cl  0  0  0  0  0  0  0  0  0  0  0  0
  -12.4118   -2.7332  -23.1305 C   0  0  0  0  0  0  0  0  0  0  0  0
  -11.0539   -3.2080  -23.5553 C   0  0  0  0  0  0  0  0  0  0  0  0
  -10.0285   -2.2208  -24.0286 C   0  0  0  0  0  0  0  0  0  0  0  0
   -8.6704   -2.6955  -24.4535 C   0  0  0  0  0  0  0  0  0  0  0  0
   -8.3379   -4.1574  -24.4051 O   0  0  0  0  0  0  0  0  0  0  0  0
  -11.6132    3.3387  -24.0998 C   0  0  0  0  0  0  0  0  0  0  0  0
  -12.3285    3.3424  -22.7813 C   0  0  0  0  0  0  0  0  0  0  0  0
  -13.4063    4.3512  -22.5157 N   0  0  0  0  0  0  0  0  0  0  0  0
  -13.7689    5.3562  -23.5685 C   0  0  0  0  0  0  0  0  0  0  0  0
  -13.0536    5.3524  -24.8870 C   0  0  0  0  0  0  0  0  0  0  0  0
  -13.4163    6.3575  -25.9399 C   0  0  0  0  0  0  0  0  0  0  0  0
  -12.7009    6.3537  -27.2583 C   0  0  0  0  0  0  0  0  0  0  0  0
  -11.6230    5.3449  -27.5240 C   0  0  0  0  0  0  0  0  0  0  0  0
  -11.2605    4.3399  -26.4711 C   0  0  0  0  0  0  0  0  0  0  0  0
  -11.9757    4.3437  -25.1527 C   0  0  0  0  0  0  0  0  0  0  0  0
   -6.2870   -2.1831  -25.3517 C   0  0  0  0  0  0  0  0  0  0  0  0
   -4.8202   -2.1606  -25.6646 C   0  0  0  0  0  0  0  0  0  0  0  0
   -5.5021   -0.9168  -25.1769 C   0  0  0  0  0  0  0  0  0  0  0  0
   -6.3239   -6.1472  -25.1670 C   0  0  0  0  0  0  0  0  0  0  0  0
   -6.0105   -4.7161  -24.8447 N   0  0  0  0  0  0  0  0  0  0  0  0
   -6.6004   -3.6141  -25.6740 C   0  0  0  0  0  0  0  0  0  0  0  0
   -7.5036   -3.9432  -26.8254 O   0  0  0  0  0  0  0  0  0  0  0  0
   -5.4177   -4.5001  -24.0890 H   0  0  0  0  0  0  0  0  0  0  0  0
 32 33  1  0  0  0
 33 34  1  0  0  0
 34 35  2  0  0  0
 34 29  1  0  0  0
 29  1  1  0  0  0
  1  2  1  0  0  0
  3  2  1  0  0  0
  3  4  1  0  0  0
  4  5  2  0  0  0
  4  6  1  0  0  0
  6 19  1  0  0  0
 19 20  2  0  0  0
 20 21  1  0  0  0
 21 22  2  0  0  0
 22 23  1  0  0  0
 23 24  2  0  0  0
 24 25  1  0  0  0
 25 26  2  0  0  0
 26 27  1  0  0  0
 27 28  2  0  0  0
  6  7  1  0  0  0
  7  8  1  0  0  0
  8  9  1  0  0  0
  3 10  1  0  0  0
 10 11  2  0  0  0
 11 12  1  0  0  0
 12 13  1  0  0  0
 12 14  2  0  0  0
 14 15  1  0  0  0
 15 16  2  0  0  0
 16 17  1  0  0  0
 17 18  2  0  0  0
 29 30  1  0  0  0
 30 31  1  0  0  0
 31 29  1  0  0  0
 17  1  1  0  0  0
  8  3  1  0  0  0
 16 10  1  0  0  0
 28 19  1  0  0  0
 28 23  1  0  0  0
 33 36  1  0  0  0
M  END
> <minimizedAffinity>
-6.74832

> <CNNscore>
0.7954814434

> <CNNaffinity>
6.7594199181

> <CNN_VS>
5.3769931793

> <CNNaffinity_variance>
0.0423525646

$$$$



 36 41  0  0  0  0  0  0  0  0999 V2000
   -6.5419    0.2595  -21.6045 N   0  0  0  0  0  0  0  0  0  0  0  0
   -6.8815    1.5786  -22.2327 C   0  0  0  0  0  0  0  0  0  0  0  0
   -8.1913    1.7567  -22.9416 C   0  0  0  0  0  0  0  0  0  0  0  0
   -9.4559    2.0823  -23.6797 C   0  0  0  0  0  0  0  0  0  0  0  0
  -10.5005    1.5585  -24.0127 O   0  0  0  0  0  0  0  0  0  0  0  0
   -9.3721    3.5087  -24.1363 N   0  0  0  0  0  0  0  0  0  0  0  0
   -8.0556    4.0647  -23.6804 C   0  0  0  0  0  0  0  0  0  0  0  0
   -7.3259    2.9819  -22.9421 C   0  0  0  0  0  0  0  0  0  0  0  0
   -5.9689    3.1031  -22.3144 C   0  0  0  0  0  0  0  0  0  0  0  0
   -9.1616    0.6156  -23.0224 C   0  0  0  0  0  0  0  0  0  0  0  0
  -10.4714    0.7937  -23.7313 C   0  0  0  0  0  0  0  0  0  0  0  0
  -11.4417   -0.3474  -23.8120 C   0  0  0  0  0  0  0  0  0  0  0  0
  -12.7516   -0.1693  -24.5210 Cl  0  0  0  0  0  0  0  0  0  0  0  0
  -11.1021   -1.6665  -23.1839 C   0  0  0  0  0  0  0  0  0  0  0  0
   -9.7923   -1.8445  -22.4749 C   0  0  0  0  0  0  0  0  0  0  0  0
   -8.8221   -0.7035  -22.3942 C   0  0  0  0  0  0  0  0  0  0  0  0
   -7.5121   -0.8815  -21.6853 C   0  0  0  0  0  0  0  0  0  0  0  0
   -7.1726   -2.2006  -21.0571 O   0  0  0  0  0  0  0  0  0  0  0  0
  -10.4206    4.2490  -24.9125 C   0  0  0  0  0  0  0  0  0  0  0  0
  -10.2220    4.5165  -26.3750 C   0  0  0  0  0  0  0  0  0  0  0  0
  -11.2705    5.2569  -27.1512 N   0  0  0  0  0  0  0  0  0  0  0  0
  -12.5176    5.7297  -26.4649 C   0  0  0  0  0  0  0  0  0  0  0  0
  -12.7162    5.4622  -25.0023 C   0  0  0  0  0  0  0  0  0  0  0  0
  -13.9634    5.9351  -24.3160 C   0  0  0  0  0  0  0  0  0  0  0  0
  -14.1619    5.6675  -22.8534 C   0  0  0  0  0  0  0  0  0  0  0  0
  -13.1134    4.9272  -22.0772 C   0  0  0  0  0  0  0  0  0  0  0  0
  -11.8663    4.4544  -22.7636 C   0  0  0  0  0  0  0  0  0  0  0  0
  -11.6677    4.7219  -24.2261 C   0  0  0  0  0  0  0  0  0  0  0  0
   -5.2320    0.0815  -20.8956 C   0  0  0  0  0  0  0  0  0  0  0  0
   -3.7555    0.1143  -20.6331 C   0  0  0  0  0  0  0  0  0  0  0  0
   -4.2975    0.6267  -21.9345 C   0  0  0  0  0  0  0  0  0  0  0  0
   -5.6526   -2.4580  -17.8751 C   0  0  0  0  0  0  0  0  0  0  0  0
   -5.1729   -1.8509  -19.1601 N   0  0  0  0  0  0  0  0  0  0  0  0
   -5.7117   -0.5255  -19.6106 C   0  0  0  0  0  0  0  0  0  0  0  0
   -6.7303    0.1928  -18.7760 O   0  0  0  0  0  0  0  0  0  0  0  0
   -4.5044   -2.3224  -19.7079 H   0  0  0  0  0  0  0  0  0  0  0  0
 32 33  1  0  0  0
 33 34  1  0  0  0
 34 35  2  0  0  0
 34 29  1  0  0  0
 29  1  1  0  0  0
  1  2  1  0  0  0
  3  2  1  0  0  0
  3  4  1  0  0  0
  4  5  2  0  0  0
  4  6  1  0  0  0
  6 19  1  0  0  0
 19 20  2  0  0  0
 20 21  1  0  0  0
 21 22  2  0  0  0
 22 23  1  0  0  0
 23 24  2  0  0  0
 24 25  1  0  0  0
 25 26  2  0  0  0
 26 27  1  0  0  0
 27 28  2  0  0  0
  6  7  1  0  0  0
  7  8  1  0  0  0
  8  9  1  0  0  0
  3 10  1  0  0  0
 10 11  2  0  0  0
 11 12  1  0  0  0
 12 13  1  0  0  0
 12 14  2  0  0  0
 14 15  1  0  0  0
 15 16  2  0  0  0
 16 17  1  0  0  0
 17 18  2  0  0  0
 29 30  1  0  0  0
 30 31  1  0  0  0
 31 29  1  0  0  0
 17  1  1  0  0  0
  8  3  1  0  0  0
 16 10  1  0  0  0
 28 19  1  0  0  0
 28 23  1  0  0  0
 33 36  1  0  0  0
M  END
> <minimizedAffinity>
-6.11618

> <CNNscore>
0.4312574267

> <CNNaffinity>
6.1472654343

> <CNN_VS>
2.6510539055

> <CNNaffinity_variance>
0.0902623534

$$$$



 36 41  0  0  0  0  0  0  0  0999 V2000
   -8.0254   -4.1667  -25.9347 N   0  0  0  0  0  0  0  0  0  0  0  0
   -7.5278   -4.1882  -24.5198 C   0  0  0  0  0  0  0  0  0  0  0  0
   -7.1995   -2.9025  -23.8205 C   0  0  0  0  0  0  0  0  0  0  0  0
   -6.8328   -1.7040  -22.9965 C   0  0  0  0  0  0  0  0  0  0  0  0
   -6.7867   -0.4930  -23.0840 O   0  0  0  0  0  0  0  0  0  0  0  0
   -6.3880   -2.1871  -21.6479 N   0  0  0  0  0  0  0  0  0  0  0  0
   -6.4798   -3.6843  -21.6384 C   0  0  0  0  0  0  0  0  0  0  0  0
   -6.9814   -4.1264  -22.9812 C   0  0  0  0  0  0  0  0  0  0  0  0
   -7.2225   -5.5436  -23.4094 C   0  0  0  0  0  0  0  0  0  0  0  0
   -7.3688   -1.5951  -24.5362 C   0  0  0  0  0  0  0  0  0  0  0  0
   -7.0405   -0.3093  -23.8369 C   0  0  0  0  0  0  0  0  0  0  0  0
   -7.2097    0.9980  -24.5525 C   0  0  0  0  0  0  0  0  0  0  0  0
   -6.8814    2.2839  -23.8533 Cl  0  0  0  0  0  0  0  0  0  0  0  0
   -7.7072    1.0196  -25.9675 C   0  0  0  0  0  0  0  0  0  0  0  0
   -8.0355   -0.2662  -26.6667 C   0  0  0  0  0  0  0  0  0  0  0  0
   -7.8663   -1.5735  -25.9511 C   0  0  0  0  0  0  0  0  0  0  0  0
   -8.1946   -2.8593  -26.6503 C   0  0  0  0  0  0  0  0  0  0  0  0
   -8.6922   -2.8378  -28.0652 O   0  0  0  0  0  0  0  0  0  0  0  0
   -5.9315   -1.3245  -20.5088 C   0  0  0  0  0  0  0  0  0  0  0  0
   -6.5994   -1.4344  -19.1702 C   0  0  0  0  0  0  0  0  0  0  0  0
   -6.1429   -0.5719  -18.0311 N   0  0  0  0  0  0  0  0  0  0  0  0
   -5.0185    0.4006  -18.2306 C   0  0  0  0  0  0  0  0  0  0  0  0
   -4.3505    0.5105  -19.5691 C   0  0  0  0  0  0  0  0  0  0  0  0
   -3.2259    1.4830  -19.7686 C   0  0  0  0  0  0  0  0  0  0  0  0
   -2.5580    1.5928  -21.1072 C   0  0  0  0  0  0  0  0  0  0  0  0
   -3.0145    0.7303  -22.2463 C   0  0  0  0  0  0  0  0  0  0  0  0
   -4.1390   -0.2422  -22.0468 C   0  0  0  0  0  0  0  0  0  0  0  0
   -4.8070   -0.3521  -20.7082 C   0  0  0  0  0  0  0  0  0  0  0  0
   -8.3537   -5.4525  -26.6339 C   0  0  0  0  0  0  0  0  0  0  0  0
   -9.1571   -6.6003  -27.1697 C   0  0  0  0  0  0  0  0  0  0  0  0
   -9.8355   -5.5018  -26.4061 C   0  0  0  0  0  0  0  0  0  0  0  0
   -4.9845   -7.5057  -27.0615 C   0  0  0  0  0  0  0  0  0  0  0  0
   -6.3524   -7.1085  -26.5909 N   0  0  0  0  0  0  0  0  0  0  0  0
   -6.9859   -5.8496  -27.1045 C   0  0  0  0  0  0  0  0  0  0  0  0
   -6.2518   -4.9880  -28.0886 O   0  0  0  0  0  0  0  0  0  0  0  0
   -6.8342   -7.6741  -25.9450 H   0  0  0  0  0  0  0  0  0  0  0  0
 32 33  1  0  0  0
 33 34  1  0  0  0
 34 35  2  0  0  0
 34 29  1  0  0  0
 29  1  1  0  0  0
  1  2  1  0  0  0
  3  2  1  0  0  0
  3  4  1  0  0  0
  4  5  2  0  0  0
  4  6  1  0  0  0
  6 19  1  0  0  0
 19 20  2  0  0  0
 20 21  1  0  0  0
 21 22  2  0  0  0
 22 23  1  0  0  0
 23 24  2  0  0  0
 24 25  1  0  0  0
 25 26  2  0  0  0
 26 27  1  0  0  0
 27 28  2  0  0  0
  6  7  1  0  0  0
  7  8  1  0  0  0
  8  9  1  0  0  0
  3 10  1  0  0  0
 10 11  2  0  0  0
 11 12  1  0  0  0
 12 13  1  0  0  0
 12 14  2  0  0  0
 14 15  1  0  0  0
 15 16  2  0  0  0
 16 17  1  0  0  0
 17 18  2  0  0  0
 29 30  1  0  0  0
 30 31  1  0  0  0
 31 29  1  0  0  0
 17  1  1  0  0  0
  8  3  1  0  0  0
 16 10  1  0  0  0
 28 19  1  0  0  0
 28 23  1  0  0  0
 33 36  1  0  0  0
M  END
> <minimizedAffinity>
-8.42868

> <CNNscore>
0.3339141309

> <CNNaffinity>
6.3131246567

> <CNN_VS>
2.1080415249

> <CNNaffinity_variance>
0.0837296098

$$$$



 36 41  0  0  0  0  0  0  0  0999 V2000
   -6.3365   -4.9223  -22.8889 N   0  0  0  0  0  0  0  0  0  0  0  0
   -6.9095   -4.0768  -23.9875 C   0  0  0  0  0  0  0  0  0  0  0  0
   -6.9506   -2.5845  -23.8417 C   0  0  0  0  0  0  0  0  0  0  0  0
   -7.0581   -1.0884  -23.8381 C   0  0  0  0  0  0  0  0  0  0  0  0
   -6.7966   -0.1381  -23.1275 O   0  0  0  0  0  0  0  0  0  0  0  0
   -7.6907   -0.6660  -25.1310 N   0  0  0  0  0  0  0  0  0  0  0  0
   -7.9742   -1.9011  -25.9336 C   0  0  0  0  0  0  0  0  0  0  0  0
   -7.5167   -3.0868  -25.1368 C   0  0  0  0  0  0  0  0  0  0  0  0
   -7.6093   -4.5227  -25.5606 C   0  0  0  0  0  0  0  0  0  0  0  0
   -6.4185   -1.9376  -22.5973 C   0  0  0  0  0  0  0  0  0  0  0  0
   -6.4595   -0.4453  -22.4515 C   0  0  0  0  0  0  0  0  0  0  0  0
   -5.9275    0.2016  -21.2072 C   0  0  0  0  0  0  0  0  0  0  0  0
   -5.9685    1.6940  -21.0614 Cl  0  0  0  0  0  0  0  0  0  0  0  0
   -5.3545   -0.6438  -20.1086 C   0  0  0  0  0  0  0  0  0  0  0  0
   -5.3134   -2.1361  -20.2544 C   0  0  0  0  0  0  0  0  0  0  0  0
   -5.8455   -2.7830  -21.4987 C   0  0  0  0  0  0  0  0  0  0  0  0
   -5.8045   -4.2754  -21.6446 C   0  0  0  0  0  0  0  0  0  0  0  0
   -5.2314   -5.1208  -20.5460 O   0  0  0  0  0  0  0  0  0  0  0  0
   -7.9876    0.7439  -25.5479 C   0  0  0  0  0  0  0  0  0  0  0  0
   -7.0770    1.4496  -26.5086 C   0  0  0  0  0  0  0  0  0  0  0  0
   -7.3740    2.8595  -26.9256 N   0  0  0  0  0  0  0  0  0  0  0  0
   -8.5816    3.5638  -26.3819 C   0  0  0  0  0  0  0  0  0  0  0  0
   -9.4922    2.8582  -25.4212 C   0  0  0  0  0  0  0  0  0  0  0  0
  -10.6998    3.5626  -24.8775 C   0  0  0  0  0  0  0  0  0  0  0  0
  -11.6104    2.8569  -23.9168 C   0  0  0  0  0  0  0  0  0  0  0  0
  -11.3134    1.4469  -23.4998 C   0  0  0  0  0  0  0  0  0  0  0  0
  -10.1058    0.7426  -24.0435 C   0  0  0  0  0  0  0  0  0  0  0  0
   -9.1952    1.4483  -25.0042 C   0  0  0  0  0  0  0  0  0  0  0  0
   -6.2955   -6.4147  -23.0347 C   0  0  0  0  0  0  0  0  0  0  0  0
   -6.7252   -7.8501  -22.9644 C   0  0  0  0  0  0  0  0  0  0  0  0
   -7.6363   -6.7690  -22.4632 C   0  0  0  0  0  0  0  0  0  0  0  0
   -2.4118   -7.1295  -23.4291 C   0  0  0  0  0  0  0  0  0  0  0  0
   -3.7668   -6.9657  -22.8069 N   0  0  0  0  0  0  0  0  0  0  0  0
   -4.9405   -6.5784  -23.6569 C   0  0  0  0  0  0  0  0  0  0  0  0
   -4.7591   -6.3548  -25.1290 O   0  0  0  0  0  0  0  0  0  0  0  0
   -3.8859   -7.1124  -21.8407 H   0  0  0  0  0  0  0  0  0  0  0  0
 32 33  1  0  0  0
 33 34  1  0  0  0
 34 35  2  0  0  0
 34 29  1  0  0  0
 29  1  1  0  0  0
  1  2  1  0  0  0
  3  2  1  0  0  0
  3  4  1  0  0  0
  4  5  2  0  0  0
  4  6  1  0  0  0
  6 19  1  0  0  0
 19 20  2  0  0  0
 20 21  1  0  0  0
 21 22  2  0  0  0
 22 23  1  0  0  0
 23 24  2  0  0  0
 24 25  1  0  0  0
 25 26  2  0  0  0
 26 27  1  0  0  0
 27 28  2  0  0  0
  6  7  1  0  0  0
  7  8  1  0  0  0
  8  9  1  0  0  0
  3 10  1  0  0  0
 10 11  2  0  0  0
 11 12  1  0  0  0
 12 13  1  0  0  0
 12 14  2  0  0  0
 14 15  1  0  0  0
 15 16  2  0  0  0
 16 17  1  0  0  0
 17 18  2  0  0  0
 29 30  1  0  0  0
 30 31  1  0  0  0
 31 29  1  0  0  0
 17  1  1  0  0  0
  8  3  1  0  0  0
 16 10  1  0  0  0
 28 19  1  0  0  0
 28 23  1  0  0  0
 33 36  1  0  0  0
M  END
> <minimizedAffinity>
-7.20387

> <CNNscore>
0.3270110488

> <CNNaffinity>
6.2381353378

> <CNN_VS>
2.0399391651

> <CNNaffinity_variance>
0.0810773969

$$$$



 36 41  0  0  0  0  0  0  0  0999 V2000
   -9.4580    2.8492  -24.8352 N   0  0  0  0  0  0  0  0  0  0  0  0
   -8.4895    1.7059  -24.9057 C   0  0  0  0  0  0  0  0  0  0  0  0
   -8.9215    0.3305  -24.4916 C   0  0  0  0  0  0  0  0  0  0  0  0
   -9.2081   -1.0924  -24.1133 C   0  0  0  0  0  0  0  0  0  0  0  0
  -10.1177   -1.7779  -23.6900 O   0  0  0  0  0  0  0  0  0  0  0  0
   -7.9601   -1.8930  -24.3407 N   0  0  0  0  0  0  0  0  0  0  0  0
   -6.9022   -0.9648  -24.8596 C   0  0  0  0  0  0  0  0  0  0  0  0
   -7.4963    0.4093  -24.9529 C   0  0  0  0  0  0  0  0  0  0  0  0
   -6.7894    1.6454  -25.4246 C   0  0  0  0  0  0  0  0  0  0  0  0
  -10.3220    0.0983  -24.0069 C   0  0  0  0  0  0  0  0  0  0  0  0
  -10.7539   -1.2772  -23.5928 C   0  0  0  0  0  0  0  0  0  0  0  0
  -12.1543   -1.5093  -23.1082 C   0  0  0  0  0  0  0  0  0  0  0  0
  -12.5863   -2.8848  -22.6940 Cl  0  0  0  0  0  0  0  0  0  0  0  0
  -13.1228   -0.3660  -23.0377 C   0  0  0  0  0  0  0  0  0  0  0  0
  -12.6908    1.0094  -23.4518 C   0  0  0  0  0  0  0  0  0  0  0  0
  -11.2904    1.2416  -23.9364 C   0  0  0  0  0  0  0  0  0  0  0  0
  -10.8584    2.6171  -24.3506 C   0  0  0  0  0  0  0  0  0  0  0  0
  -11.8268    3.7604  -24.2801 O   0  0  0  0  0  0  0  0  0  0  0  0
   -7.7985   -3.3635  -24.0927 C   0  0  0  0  0  0  0  0  0  0  0  0
   -7.1339   -3.8437  -22.8366 C   0  0  0  0  0  0  0  0  0  0  0  0
   -6.9723   -5.3142  -22.5886 N   0  0  0  0  0  0  0  0  0  0  0  0
   -7.4753   -6.3045  -23.5968 C   0  0  0  0  0  0  0  0  0  0  0  0
   -8.1399   -5.8243  -24.8528 C   0  0  0  0  0  0  0  0  0  0  0  0
   -8.6429   -6.8146  -25.8610 C   0  0  0  0  0  0  0  0  0  0  0  0
   -9.3075   -6.3343  -27.1170 C   0  0  0  0  0  0  0  0  0  0  0  0
   -9.4691   -4.8638  -27.3650 C   0  0  0  0  0  0  0  0  0  0  0  0
   -8.9661   -3.8735  -26.3569 C   0  0  0  0  0  0  0  0  0  0  0  0
   -8.3015   -4.3538  -25.1008 C   0  0  0  0  0  0  0  0  0  0  0  0
   -9.0260    4.2247  -25.2494 C   0  0  0  0  0  0  0  0  0  0  0  0
   -8.7205    5.4013  -26.1282 C   0  0  0  0  0  0  0  0  0  0  0  0
   -9.2403    4.1299  -26.7309 C   0  0  0  0  0  0  0  0  0  0  0  0
   -6.9672    5.0496  -21.9583 C   0  0  0  0  0  0  0  0  0  0  0  0
   -7.3316    4.4773  -23.2962 N   0  0  0  0  0  0  0  0  0  0  0  0
   -8.6616    4.7971  -23.9116 C   0  0  0  0  0  0  0  0  0  0  0  0
   -9.6272    5.6891  -23.1893 O   0  0  0  0  0  0  0  0  0  0  0  0
   -6.6978    3.8918  -23.7702 H   0  0  0  0  0  0  0  0  0  0  0  0
 32 33  1  0  0  0
 33 34  1  0  0  0
 34 35  2  0  0  0
 34 29  1  0  0  0
 29  1  1  0  0  0
  1  2  1  0  0  0
  3  2  1  0  0  0
  3  4  1  0  0  0
  4  5  2  0  0  0
  4  6  1  0  0  0
  6 19  1  0  0  0
 19 20  2  0  0  0
 20 21  1  0  0  0
 21 22  2  0  0  0
 22 23  1  0  0  0
 23 24  2  0  0  0
 24 25  1  0  0  0
 25 26  2  0  0  0
 26 27  1  0  0  0
 27 28  2  0  0  0
  6  7  1  0  0  0
  7  8  1  0  0  0
  8  9  1  0  0  0
  3 10  1  0  0  0
 10 11  2  0  0  0
 11 12  1  0  0  0
 12 13  1  0  0  0
 12 14  2  0  0  0
 14 15  1  0  0  0
 15 16  2  0  0  0
 16 17  1  0  0  0
 17 18  2  0  0  0
 29 30  1  0  0  0
 30 31  1  0  0  0
 31 29  1  0  0  0
 17  1  1  0  0  0
  8  3  1  0  0  0
 16 10  1  0  0  0
 28 19  1  0  0  0
 28 23  1  0  0  0
 33 36  1  0  0  0
M  END
> <minimizedAffinity>
-7.67447

> <CNNscore>
0.2845747173

> <CNNaffinity>
6.2711939812

> <CNN_VS>
1.7846232653

> <CNNaffinity_variance>
0.1495504230

$$$$



 36 41  0  0  0  0  0  0  0  0999 V2000
  -10.3320    3.4339  -24.5839 N   0  0  0  0  0  0  0  0  0  0  0  0
   -9.1279    2.5396  -24.5669 C   0  0  0  0  0  0  0  0  0  0  0  0
   -9.2725    1.0939  -24.1944 C   0  0  0  0  0  0  0  0  0  0  0  0
   -9.2624   -0.3647  -23.8444 C   0  0  0  0  0  0  0  0  0  0  0  0
  -10.0272   -1.2460  -23.5057 O   0  0  0  0  0  0  0  0  0  0  0  0
   -7.8507   -0.8589  -23.9582 N   0  0  0  0  0  0  0  0  0  0  0  0
   -6.9884    0.2943  -24.3785 C   0  0  0  0  0  0  0  0  0  0  0  0
   -7.8671    1.5011  -24.5245 C   0  0  0  0  0  0  0  0  0  0  0  0
   -7.4191    2.8741  -24.9295 C   0  0  0  0  0  0  0  0  0  0  0  0
  -10.6214    0.5423  -23.8389 C   0  0  0  0  0  0  0  0  0  0  0  0
  -10.7661   -0.9035  -23.4664 C   0  0  0  0  0  0  0  0  0  0  0  0
  -12.1150   -1.4549  -23.1109 C   0  0  0  0  0  0  0  0  0  0  0  0
  -12.2597   -2.9008  -22.7384 Cl  0  0  0  0  0  0  0  0  0  0  0  0
  -13.3191   -0.5607  -23.1279 C   0  0  0  0  0  0  0  0  0  0  0  0
  -13.1744    0.8851  -23.5004 C   0  0  0  0  0  0  0  0  0  0  0  0
  -11.8256    1.4366  -23.8559 C   0  0  0  0  0  0  0  0  0  0  0  0
  -11.6808    2.8824  -24.2284 C   0  0  0  0  0  0  0  0  0  0  0  0
  -12.8850    3.7767  -24.2453 O   0  0  0  0  0  0  0  0  0  0  0  0
   -7.3834   -2.2602  -23.6974 C   0  0  0  0  0  0  0  0  0  0  0  0
   -6.7251   -2.6008  -22.3933 C   0  0  0  0  0  0  0  0  0  0  0  0
   -6.2578   -4.0021  -22.1325 N   0  0  0  0  0  0  0  0  0  0  0  0
   -6.4488   -5.0627  -23.1758 C   0  0  0  0  0  0  0  0  0  0  0  0
   -7.1071   -4.7221  -24.4799 C   0  0  0  0  0  0  0  0  0  0  0  0
   -7.2982   -5.7829  -25.5232 C   0  0  0  0  0  0  0  0  0  0  0  0
   -7.9565   -5.4421  -26.8273 C   0  0  0  0  0  0  0  0  0  0  0  0
   -8.4238   -4.0408  -27.0880 C   0  0  0  0  0  0  0  0  0  0  0  0
   -8.2327   -2.9802  -26.0448 C   0  0  0  0  0  0  0  0  0  0  0  0
   -7.5744   -3.3208  -24.7407 C   0  0  0  0  0  0  0  0  0  0  0  0
  -10.1873    4.8797  -24.9564 C   0  0  0  0  0  0  0  0  0  0  0  0
   -9.9470    6.3538  -24.8174 C   0  0  0  0  0  0  0  0  0  0  0  0
   -9.8620    5.4633  -23.6134 C   0  0  0  0  0  0  0  0  0  0  0  0
  -12.1352    4.8972  -28.4140 C   0  0  0  0  0  0  0  0  0  0  0  0
  -11.8601    4.9788  -26.9416 N   0  0  0  0  0  0  0  0  0  0  0  0
  -10.4622    4.7981  -26.4287 C   0  0  0  0  0  0  0  0  0  0  0  0
   -9.3394    4.5359  -27.3880 O   0  0  0  0  0  0  0  0  0  0  0  0
  -12.5971    5.1509  -26.3120 H   0  0  0  0  0  0  0  0  0  0  0  0
 32 33  1  0  0  0
 33 34  1  0  0  0
 34 35  2  0  0  0
 34 29  1  0  0  0
 29  1  1  0  0  0
  1  2  1  0  0  0
  3  2  1  0  0  0
  3  4  1  0  0  0
  4  5  2  0  0  0
  4  6  1  0  0  0
  6 19  1  0  0  0
 19 20  2  0  0  0
 20 21  1  0  0  0
 21 22  2  0  0  0
 22 23  1  0  0  0
 23 24  2  0  0  0
 24 25  1  0  0  0
 25 26  2  0  0  0
 26 27  1  0  0  0
 27 28  2  0  0  0
  6  7  1  0  0  0
  7  8  1  0  0  0
  8  9  1  0  0  0
  3 10  1  0  0  0
 10 11  2  0  0  0
 11 12  1  0  0  0
 12 13  1  0  0  0
 12 14  2  0  0  0
 14 15  1  0  0  0
 15 16  2  0  0  0
 16 17  1  0  0  0
 17 18  2  0  0  0
 29 30  1  0  0  0
 30 31  1  0  0  0
 31 29  1  0  0  0
 17  1  1  0  0  0
  8  3  1  0  0  0
 16 10  1  0  0  0
 28 19  1  0  0  0
 28 23  1  0  0  0
 33 36  1  0  0  0
M  END
> <minimizedAffinity>
-7.52586

> <CNNscore>
0.2785932422

> <CNNaffinity>
6.2474131584

> <CNN_VS>
1.7404870987

> <CNNaffinity_variance>
0.2226750851

$$$$



 36 41  0  0  0  0  0  0  0  0999 V2000
   -6.3130    0.5292  -21.1624 N   0  0  0  0  0  0  0  0  0  0  0  0
   -6.6700    1.7492  -21.9588 C   0  0  0  0  0  0  0  0  0  0  0  0
   -7.9450    1.7830  -22.7482 C   0  0  0  0  0  0  0  0  0  0  0  0
   -9.1792    1.9618  -23.5817 C   0  0  0  0  0  0  0  0  0  0  0  0
  -10.1822    1.3553  -23.9018 O   0  0  0  0  0  0  0  0  0  0  0  0
   -9.1274    3.3277  -24.1995 N   0  0  0  0  0  0  0  0  0  0  0  0
   -7.8612    3.9931  -23.7478 C   0  0  0  0  0  0  0  0  0  0  0  0
   -7.1305    3.0384  -22.8508 C   0  0  0  0  0  0  0  0  0  0  0  0
   -5.8160    3.2942  -22.1751 C   0  0  0  0  0  0  0  0  0  0  0  0
   -8.8631    0.5967  -22.7412 C   0  0  0  0  0  0  0  0  0  0  0  0
  -10.1381    0.6305  -23.5306 C   0  0  0  0  0  0  0  0  0  0  0  0
  -11.0561   -0.5557  -23.5237 C   0  0  0  0  0  0  0  0  0  0  0  0
  -12.3312   -0.5219  -24.3131 Cl  0  0  0  0  0  0  0  0  0  0  0  0
  -10.6991   -1.7757  -22.7273 C   0  0  0  0  0  0  0  0  0  0  0  0
   -9.4242   -1.8094  -21.9379 C   0  0  0  0  0  0  0  0  0  0  0  0
   -8.5061   -0.6232  -21.9449 C   0  0  0  0  0  0  0  0  0  0  0  0
   -7.2311   -0.6570  -21.1554 C   0  0  0  0  0  0  0  0  0  0  0  0
   -6.8741   -1.8770  -20.3591 O   0  0  0  0  0  0  0  0  0  0  0  0
  -10.1605    3.9236  -25.1093 C   0  0  0  0  0  0  0  0  0  0  0  0
   -9.9422    3.9241  -26.5934 C   0  0  0  0  0  0  0  0  0  0  0  0
  -10.9753    4.5200  -27.5032 N   0  0  0  0  0  0  0  0  0  0  0  0
  -12.2266    5.1153  -26.9289 C   0  0  0  0  0  0  0  0  0  0  0  0
  -12.4448    5.1148  -25.4449 C   0  0  0  0  0  0  0  0  0  0  0  0
  -13.6962    5.7101  -24.8706 C   0  0  0  0  0  0  0  0  0  0  0  0
  -13.9144    5.7095  -23.3866 C   0  0  0  0  0  0  0  0  0  0  0  0
  -12.8813    5.1137  -22.4768 C   0  0  0  0  0  0  0  0  0  0  0  0
  -11.6300    4.5184  -23.0510 C   0  0  0  0  0  0  0  0  0  0  0  0
  -11.4118    4.5189  -24.5351 C   0  0  0  0  0  0  0  0  0  0  0  0
   -5.0379    0.4955  -20.3730 C   0  0  0  0  0  0  0  0  0  0  0  0
   -4.1092    0.4886  -19.1952 C   0  0  0  0  0  0  0  0  0  0  0  0
   -5.5920    0.5611  -18.9806 C   0  0  0  0  0  0  0  0  0  0  0  0
   -3.4637   -0.1785  -23.9531 C   0  0  0  0  0  0  0  0  0  0  0  0
   -4.4603   -0.1011  -22.8347 N   0  0  0  0  0  0  0  0  0  0  0  0
   -4.0413    0.4181  -21.4913 C   0  0  0  0  0  0  0  0  0  0  0  0
   -2.6256    0.8600  -21.2662 O   0  0  0  0  0  0  0  0  0  0  0  0
   -5.3895   -0.3911  -22.9824 H   0  0  0  0  0  0  0  0  0  0  0  0
 32 33  1  0  0  0
 33 34  1  0  0  0
 34 35  2  0  0  0
 34 29  1  0  0  0
 29  1  1  0  0  0
  1  2  1  0  0  0
  3  2  1  0  0  0
  3  4  1  0  0  0
  4  5  2  0  0  0
  4  6  1  0  0  0
  6 19  1  0  0  0
 19 20  2  0  0  0
 20 21  1  0  0  0
 21 22  2  0  0  0
 22 23  1  0  0  0
 23 24  2  0  0  0
 24 25  1  0  0  0
 25 26  2  0  0  0
 26 27  1  0  0  0
 27 28  2  0  0  0
  6  7  1  0  0  0
  7  8  1  0  0  0
  8  9  1  0  0  0
  3 10  1  0  0  0
 10 11  2  0  0  0
 11 12  1  0  0  0
 12 13  1  0  0  0
 12 14  2  0  0  0
 14 15  1  0  0  0
 15 16  2  0  0  0
 16 17  1  0  0  0
 17 18  2  0  0  0
 29 30  1  0  0  0
 30 31  1  0  0  0
 31 29  1  0  0  0
 17  1  1  0  0  0
  8  3  1  0  0  0
 16 10  1  0  0  0
 28 19  1  0  0  0
 28 23  1  0  0  0
 33 36  1  0  0  0
M  END
> <minimizedAffinity>
-8.27166

> <CNNscore>
0.1918057203

> <CNNaffinity>
5.9106230736

> <CNN_VS>
1.1336913109

> <CNNaffinity_variance>
0.1608914584

$$$$



 36 41  0  0  0  0  0  0  0  0999 V2000
   -6.8277    0.1374  -21.9645 N   0  0  0  0  0  0  0  0  0  0  0  0
   -7.2622    1.4899  -22.4461 C   0  0  0  0  0  0  0  0  0  0  0  0
   -8.6620    1.6944  -22.9448 C   0  0  0  0  0  0  0  0  0  0  0  0
  -10.0221    2.0487  -23.4689 C   0  0  0  0  0  0  0  0  0  0  0  0
  -11.1010    1.5321  -23.6824 O   0  0  0  0  0  0  0  0  0  0  0  0
  -10.0134    3.5033  -23.8349 N   0  0  0  0  0  0  0  0  0  0  0  0
   -8.6479    4.0481  -23.5371 C   0  0  0  0  0  0  0  0  0  0  0  0
   -7.8127    2.9301  -22.9870 C   0  0  0  0  0  0  0  0  0  0  0  0
   -6.3798    3.0302  -22.5549 C   0  0  0  0  0  0  0  0  0  0  0  0
   -9.6274    0.5464  -22.9620 C   0  0  0  0  0  0  0  0  0  0  0  0
  -11.0271    0.7509  -23.4607 C   0  0  0  0  0  0  0  0  0  0  0  0
  -11.9924   -0.3971  -23.4778 C   0  0  0  0  0  0  0  0  0  0  0  0
  -13.3922   -0.1927  -23.9766 Cl  0  0  0  0  0  0  0  0  0  0  0  0
  -11.5579   -1.7496  -22.9962 C   0  0  0  0  0  0  0  0  0  0  0  0
  -10.1581   -1.9541  -22.4975 C   0  0  0  0  0  0  0  0  0  0  0  0
   -9.1928   -0.8061  -22.4804 C   0  0  0  0  0  0  0  0  0  0  0  0
   -7.7930   -1.0106  -21.9816 C   0  0  0  0  0  0  0  0  0  0  0  0
   -7.3585   -2.3631  -21.5000 O   0  0  0  0  0  0  0  0  0  0  0  0
  -11.1675    4.2773  -24.3996 C   0  0  0  0  0  0  0  0  0  0  0  0
  -12.2125    4.8413  -23.4831 C   0  0  0  0  0  0  0  0  0  0  0  0
  -13.3667    5.6153  -24.0478 N   0  0  0  0  0  0  0  0  0  0  0  0
  -13.4758    5.8252  -25.5290 C   0  0  0  0  0  0  0  0  0  0  0  0
  -12.4309    5.2612  -26.4455 C   0  0  0  0  0  0  0  0  0  0  0  0
  -12.5401    5.4712  -27.9268 C   0  0  0  0  0  0  0  0  0  0  0  0
  -11.4951    4.9072  -28.8432 C   0  0  0  0  0  0  0  0  0  0  0  0
  -10.3409    4.1332  -28.2785 C   0  0  0  0  0  0  0  0  0  0  0  0
  -10.2318    3.9232  -26.7973 C   0  0  0  0  0  0  0  0  0  0  0  0
  -11.2767    4.4873  -25.8808 C   0  0  0  0  0  0  0  0  0  0  0  0
   -5.4279   -0.0671  -21.4657 C   0  0  0  0  0  0  0  0  0  0  0  0
   -4.2767   -0.2046  -20.5140 C   0  0  0  0  0  0  0  0  0  0  0  0
   -5.6575    0.0546  -19.9884 C   0  0  0  0  0  0  0  0  0  0  0  0
   -2.7715    0.3558  -24.3837 C   0  0  0  0  0  0  0  0  0  0  0  0
   -3.4872    0.5484  -23.0795 N   0  0  0  0  0  0  0  0  0  0  0  0
   -4.7123   -0.2597  -22.7699 C   0  0  0  0  0  0  0  0  0  0  0  0
   -5.2218   -1.2604  -23.7643 O   0  0  0  0  0  0  0  0  0  0  0  0
   -3.1528    1.2053  -22.4268 H   0  0  0  0  0  0  0  0  0  0  0  0
 32 33  1  0  0  0
 33 34  1  0  0  0
 34 35  2  0  0  0
 34 29  1  0  0  0
 29  1  1  0  0  0
  1  2  1  0  0  0
  3  2  1  0  0  0
  3  4  1  0  0  0
  4  5  2  0  0  0
  4  6  1  0  0  0
  6 19  1  0  0  0
 19 20  2  0  0  0
 20 21  1  0  0  0
 21 22  2  0  0  0
 22 23  1  0  0  0
 23 24  2  0  0  0
 24 25  1  0  0  0
 25 26  2  0  0  0
 26 27  1  0  0  0
 27 28  2  0  0  0
  6  7  1  0  0  0
  7  8  1  0  0  0
  8  9  1  0  0  0
  3 10  1  0  0  0
 10 11  2  0  0  0
 11 12  1  0  0  0
 12 13  1  0  0  0
 12 14  2  0  0  0
 14 15  1  0  0  0
 15 16  2  0  0  0
 16 17  1  0  0  0
 17 18  2  0  0  0
 29 30  1  0  0  0
 30 31  1  0  0  0
 31 29  1  0  0  0
 17  1  1  0  0  0
  8  3  1  0  0  0
 16 10  1  0  0  0
 28 19  1  0  0  0
 28 23  1  0  0  0
 33 36  1  0  0  0
M  END
> <minimizedAffinity>
-7.83516

> <CNNscore>
0.1763988882

> <CNNaffinity>
5.9547567368

> <CNN_VS>
1.0504124165

> <CNNaffinity_variance>
0.1687639207

$$$$



 36 41  0  0  0  0  0  0  0  0999 V2000
   -8.7860   -3.3249  -24.8480 N   0  0  0  0  0  0  0  0  0  0  0  0
   -7.9021   -2.1194  -24.7234 C   0  0  0  0  0  0  0  0  0  0  0  0
   -8.4753   -0.8142  -24.2565 C   0  0  0  0  0  0  0  0  0  0  0  0
   -8.9041    0.5505  -23.8053 C   0  0  0  0  0  0  0  0  0  0  0  0
   -9.9011    1.1378  -23.4348 O   0  0  0  0  0  0  0  0  0  0  0  0
   -7.7013    1.4464  -23.8311 N   0  0  0  0  0  0  0  0  0  0  0  0
   -6.5291    0.6354  -24.2983 C   0  0  0  0  0  0  0  0  0  0  0  0
   -7.0075   -0.7618  -24.5612 C   0  0  0  0  0  0  0  0  0  0  0  0
   -6.1658   -1.9057  -25.0440 C   0  0  0  0  0  0  0  0  0  0  0  0
   -9.9324   -0.7146  -23.9142 C   0  0  0  0  0  0  0  0  0  0  0  0
  -10.5055    0.5906  -23.4473 C   0  0  0  0  0  0  0  0  0  0  0  0
  -11.9625    0.6902  -23.1051 C   0  0  0  0  0  0  0  0  0  0  0  0
  -12.5358    1.9954  -22.6382 Cl  0  0  0  0  0  0  0  0  0  0  0  0
  -12.8464   -0.5154  -23.2297 C   0  0  0  0  0  0  0  0  0  0  0  0
  -12.2732   -1.8205  -23.6966 C   0  0  0  0  0  0  0  0  0  0  0  0
  -10.8162   -1.9201  -24.0388 C   0  0  0  0  0  0  0  0  0  0  0  0
  -10.2430   -3.2253  -24.5057 C   0  0  0  0  0  0  0  0  0  0  0  0
  -11.1268   -4.4309  -24.6304 O   0  0  0  0  0  0  0  0  0  0  0  0
   -7.6753    2.8985  -23.4557 C   0  0  0  0  0  0  0  0  0  0  0  0
   -6.9051    3.3476  -22.2494 C   0  0  0  0  0  0  0  0  0  0  0  0
   -6.8791    4.7996  -21.8740 N   0  0  0  0  0  0  0  0  0  0  0  0
   -7.6232    5.8025  -22.7049 C   0  0  0  0  0  0  0  0  0  0  0  0
   -8.3934    5.3534  -23.9112 C   0  0  0  0  0  0  0  0  0  0  0  0
   -9.1376    6.3564  -24.7421 C   0  0  0  0  0  0  0  0  0  0  0  0
   -9.9077    5.9072  -25.9484 C   0  0  0  0  0  0  0  0  0  0  0  0
   -9.9337    4.4552  -26.3238 C   0  0  0  0  0  0  0  0  0  0  0  0
   -9.1896    3.4523  -25.4929 C   0  0  0  0  0  0  0  0  0  0  0  0
   -8.4194    3.9014  -24.2866 C   0  0  0  0  0  0  0  0  0  0  0  0
   -8.2127   -4.6301  -25.3149 C   0  0  0  0  0  0  0  0  0  0  0  0
   -7.7815   -5.7300  -26.2392 C   0  0  0  0  0  0  0  0  0  0  0  0
   -8.4225   -4.4924  -26.7938 C   0  0  0  0  0  0  0  0  0  0  0  0
   -7.0015   -7.2568  -22.5977 C   0  0  0  0  0  0  0  0  0  0  0  0
   -7.4102   -6.6659  -23.9145 N   0  0  0  0  0  0  0  0  0  0  0  0
   -7.8040   -5.2209  -23.9982 C   0  0  0  0  0  0  0  0  0  0  0  0
   -7.7889   -4.3669  -22.7652 O   0  0  0  0  0  0  0  0  0  0  0  0
   -7.4201   -7.2265  -24.7237 H   0  0  0  0  0  0  0  0  0  0  0  0
 32 33  1  0  0  0
 33 34  1  0  0  0
 34 35  2  0  0  0
 34 29  1  0  0  0
 29  1  1  0  0  0
  1  2  1  0  0  0
  3  2  1  0  0  0
  3  4  1  0  0  0
  4  5  2  0  0  0
  4  6  1  0  0  0
  6 19  1  0  0  0
 19 20  2  0  0  0
 20 21  1  0  0  0
 21 22  2  0  0  0
 22 23  1  0  0  0
 23 24  2  0  0  0
 24 25  1  0  0  0
 25 26  2  0  0  0
 26 27  1  0  0  0
 27 28  2  0  0  0
  6  7  1  0  0  0
  7  8  1  0  0  0
  8  9  1  0  0  0
  3 10  1  0  0  0
 10 11  2  0  0  0
 11 12  1  0  0  0
 12 13  1  0  0  0
 12 14  2  0  0  0
 14 15  1  0  0  0
 15 16  2  0  0  0
 16 17  1  0  0  0
 17 18  2  0  0  0
 29 30  1  0  0  0
 30 31  1  0  0  0
 31 29  1  0  0  0
 17  1  1  0  0  0
  8  3  1  0  0  0
 16 10  1  0  0  0
 28 19  1  0  0  0
 28 23  1  0  0  0
 33 36  1  0  0  0
M  END
> <minimizedAffinity>
-7.15228

> <CNNscore>
0.1740776151

> <CNNaffinity>
6.0988378525

> <CNN_VS>
1.0616711378

> <CNNaffinity_variance>
0.0843722522

$$$$
