


 21 23  0  0  0  0  0  0  0  0999 V2000
   -5.9886   -2.6975  -21.4230 C   0  0  0  0  0  0  0  0  0  0  0  0
  -10.2434   -6.1204  -26.4136 C   0  0  0  0  0  0  0  0  0  0  0  0
   -9.3119   -5.5157  -25.4054 C   0  0  0  0  0  0  0  0  0  0  0  0
   -9.7012   -4.1621  -24.8893 C   0  0  0  0  0  0  0  0  0  0  0  0
   -8.9890   -3.3030  -23.8870 C   0  0  0  0  0  0  0  0  0  0  0  0
   -7.7116   -3.5853  -23.1531 N   0  0  0  0  0  0  0  0  0  0  0  0
   -7.2544   -2.5150  -22.2069 C   0  0  0  0  0  0  0  0  0  0  0  0
   -8.0630   -1.2621  -22.0445 O   0  0  0  0  0  0  0  0  0  0  0  0
   -6.8309   -4.7964  -23.2404 C   0  0  0  0  0  0  0  0  0  0  0  0
   -7.0101   -6.0243  -24.0831 C   0  0  0  0  0  0  0  0  0  0  0  0
   -8.1142   -6.3445  -25.0466 O   0  0  0  0  0  0  0  0  0  0  0  0
   -5.6147   -1.7067  -20.3608 C   0  0  0  0  0  0  0  0  0  0  0  0
   -6.0623   -1.9201  -18.9451 C   0  0  0  0  0  0  0  0  0  0  0  0
   -5.6885   -0.9292  -17.8829 N   0  0  0  0  0  0  0  0  0  0  0  0
   -4.8670    0.2750  -18.2362 C   0  0  0  0  0  0  0  0  0  0  0  0
   -4.4194    0.4885  -19.6519 C   0  0  0  0  0  0  0  0  0  0  0  0
   -3.5979    1.6928  -20.0053 C   0  0  0  0  0  0  0  0  0  0  0  0
   -3.1504    1.9062  -21.4209 C   0  0  0  0  0  0  0  0  0  0  0  0
   -3.5242    0.9153  -22.4832 C   0  0  0  0  0  0  0  0  0  0  0  0
   -4.3457   -0.2889  -22.1299 C   0  0  0  0  0  0  0  0  0  0  0  0
   -4.7933   -0.5024  -20.7142 C   0  0  0  0  0  0  0  0  0  0  0  0
  3  2  1  0  0  0
  3  4  1  0  0  0
  4  5  1  0  0  0
  5  6  1  0  0  0
  6  7  1  0  0  0
  7  8  2  0  0  0
  7  1  1  0  0  0
  1 12  1  0  0  0
 12 13  2  0  0  0
 13 14  1  0  0  0
 14 15  2  0  0  0
 15 16  1  0  0  0
 16 17  2  0  0  0
 17 18  1  0  0  0
 18 19  2  0  0  0
 19 20  1  0  0  0
 20 21  2  0  0  0
  6  9  1  0  0  0
  9 10  1  0  0  0
 10 11  1  0  0  0
 11  3  1  0  0  0
 21 12  1  0  0  0
 21 16  1  0  0  0
M  END
> <minimizedAffinity>
-6.95260

> <CNNscore>
0.6372637749

> <CNNaffinity>
4.7675838470

> <CNN_VS>
3.0382084846

> <CNNaffinity_variance>
0.2848537862

$$$$



 21 23  0  0  0  0  0  0  0  0999 V2000
   -6.6784   -1.6051  -21.8361 C   0  0  0  0  0  0  0  0  0  0  0  0
   -9.1305   -7.2680  -25.9159 C   0  0  0  0  0  0  0  0  0  0  0  0
   -8.7052   -6.0536  -25.1450 C   0  0  0  0  0  0  0  0  0  0  0  0
   -7.6444   -6.2790  -24.1087 C   0  0  0  0  0  0  0  0  0  0  0  0
   -7.0133   -5.2809  -23.1838 C   0  0  0  0  0  0  0  0  0  0  0  0
   -7.2871   -3.8107  -23.0668 N   0  0  0  0  0  0  0  0  0  0  0  0
   -6.4820   -3.0789  -22.0342 C   0  0  0  0  0  0  0  0  0  0  0  0
   -5.4803   -3.8210  -21.1998 O   0  0  0  0  0  0  0  0  0  0  0  0
   -8.2597   -2.9757  -23.8457 C   0  0  0  0  0  0  0  0  0  0  0  0
   -9.1986   -3.4045  -24.9341 C   0  0  0  0  0  0  0  0  0  0  0  0
   -9.3969   -4.7743  -25.5123 O   0  0  0  0  0  0  0  0  0  0  0  0
   -6.1408   -0.9355  -20.6062 C   0  0  0  0  0  0  0  0  0  0  0  0
   -6.8326   -1.1207  -19.2882 C   0  0  0  0  0  0  0  0  0  0  0  0
   -6.2950   -0.4510  -18.0584 N   0  0  0  0  0  0  0  0  0  0  0  0
   -5.0656    0.4038  -18.1465 C   0  0  0  0  0  0  0  0  0  0  0  0
   -4.3737    0.5890  -19.4645 C   0  0  0  0  0  0  0  0  0  0  0  0
   -3.1443    1.4438  -19.5526 C   0  0  0  0  0  0  0  0  0  0  0  0
   -2.4525    1.6290  -20.8705 C   0  0  0  0  0  0  0  0  0  0  0  0
   -2.9901    0.9594  -22.1004 C   0  0  0  0  0  0  0  0  0  0  0  0
   -4.2195    0.1045  -22.0123 C   0  0  0  0  0  0  0  0  0  0  0  0
   -4.9113   -0.0806  -20.6943 C   0  0  0  0  0  0  0  0  0  0  0  0
  3  2  1  0  0  0
  3  4  1  0  0  0
  4  5  1  0  0  0
  5  6  1  0  0  0
  6  7  1  0  0  0
  7  8  2  0  0  0
  7  1  1  0  0  0
  1 12  1  0  0  0
 12 13  2  0  0  0
 13 14  1  0  0  0
 14 15  2  0  0  0
 15 16  1  0  0  0
 16 17  2  0  0  0
 17 18  1  0  0  0
 18 19  2  0  0  0
 19 20  1  0  0  0
 20 21  2  0  0  0
  6  9  1  0  0  0
  9 10  1  0  0  0
 10 11  1  0  0  0
 11  3  1  0  0  0
 21 12  1  0  0  0
 21 16  1  0  0  0
M  END
> <minimizedAffinity>
-7.07185

> <CNNscore>
0.5679399967

> <CNNaffinity>
4.7879629135

> <CNN_VS>
2.7192757130

> <CNNaffinity_variance>
0.2380214930

$$$$



 21 23  0  0  0  0  0  0  0  0999 V2000
   -6.2178   -1.8284  -22.3361 C   0  0  0  0  0  0  0  0  0  0  0  0
  -13.2327    0.0508  -23.7451 C   0  0  0  0  0  0  0  0  0  0  0  0
  -11.7852   -0.2203  -23.4603 C   0  0  0  0  0  0  0  0  0  0  0  0
  -11.4098   -1.6654  -23.3157 C   0  0  0  0  0  0  0  0  0  0  0  0
  -10.0610   -2.2576  -23.0329 C   0  0  0  0  0  0  0  0  0  0  0  0
   -8.7543   -1.5509  -22.8249 N   0  0  0  0  0  0  0  0  0  0  0  0
   -7.5718   -2.4344  -22.5582 C   0  0  0  0  0  0  0  0  0  0  0  0
   -7.7434   -3.9239  -22.5136 O   0  0  0  0  0  0  0  0  0  0  0  0
   -8.4738   -0.0776  -22.8482 C   0  0  0  0  0  0  0  0  0  0  0  0
   -9.4307    1.0530  -23.0854 C   0  0  0  0  0  0  0  0  0  0  0  0
  -10.9044    0.9895  -23.3578 O   0  0  0  0  0  0  0  0  0  0  0  0
   -5.8812   -1.2093  -21.0119 C   0  0  0  0  0  0  0  0  0  0  0  0
   -6.6562   -1.5926  -19.7861 C   0  0  0  0  0  0  0  0  0  0  0  0
   -6.3196   -0.9734  -18.4620 N   0  0  0  0  0  0  0  0  0  0  0  0
   -5.2081    0.0289  -18.3635 C   0  0  0  0  0  0  0  0  0  0  0  0
   -4.4331    0.4122  -19.5893 C   0  0  0  0  0  0  0  0  0  0  0  0
   -3.3215    1.4146  -19.4909 C   0  0  0  0  0  0  0  0  0  0  0  0
   -2.5466    1.7978  -20.7166 C   0  0  0  0  0  0  0  0  0  0  0  0
   -2.8831    1.1787  -22.0408 C   0  0  0  0  0  0  0  0  0  0  0  0
   -3.9947    0.1764  -22.1392 C   0  0  0  0  0  0  0  0  0  0  0  0
   -4.7696   -0.2069  -20.9135 C   0  0  0  0  0  0  0  0  0  0  0  0
  3  2  1  0  0  0
  3  4  1  0  0  0
  4  5  1  0  0  0
  5  6  1  0  0  0
  6  7  1  0  0  0
  7  8  2  0  0  0
  7  1  1  0  0  0
  1 12  1  0  0  0
 12 13  2  0  0  0
 13 14  1  0  0  0
 14 15  2  0  0  0
 15 16  1  0  0  0
 16 17  2  0  0  0
 17 18  1  0  0  0
 18 19  2  0  0  0
 19 20  1  0  0  0
 20 21  2  0  0  0
  6  9  1  0  0  0
  9 10  1  0  0  0
 10 11  1  0  0  0
 11  3  1  0  0  0
 21 12  1  0  0  0
 21 16  1  0  0  0
M  END
> <minimizedAffinity>
-6.79263

> <CNNscore>
0.4663068354

> <CNNaffinity>
4.6154088974

> <CNN_VS>
2.1521966457

> <CNNaffinity_variance>
0.2864837646

$$$$



 21 23  0  0  0  0  0  0  0  0999 V2000
   -8.2057   -3.2561  -24.2784 C   0  0  0  0  0  0  0  0  0  0  0  0
   -5.2300   -0.5900  -18.0525 C   0  0  0  0  0  0  0  0  0  0  0  0
   -5.9137   -1.0521  -19.3050 C   0  0  0  0  0  0  0  0  0  0  0  0
   -5.2696   -2.2094  -20.0091 C   0  0  0  0  0  0  0  0  0  0  0  0
   -5.7038   -2.8963  -21.2700 C   0  0  0  0  0  0  0  0  0  0  0  0
   -6.8895   -2.5954  -22.1381 N   0  0  0  0  0  0  0  0  0  0  0  0
   -7.0525   -3.4725  -23.3440 C   0  0  0  0  0  0  0  0  0  0  0  0
   -6.0622   -4.5660  -23.6154 O   0  0  0  0  0  0  0  0  0  0  0  0
   -7.9338   -1.5335  -21.9598 C   0  0  0  0  0  0  0  0  0  0  0  0
   -8.0503   -0.5101  -20.8693 C   0  0  0  0  0  0  0  0  0  0  0  0
   -7.1513   -0.2959  -19.6878 O   0  0  0  0  0  0  0  0  0  0  0  0
   -8.8678   -1.9123  -24.3540 C   0  0  0  0  0  0  0  0  0  0  0  0
   -8.1448   -0.7538  -24.9744 C   0  0  0  0  0  0  0  0  0  0  0  0
   -8.8070    0.5900  -25.0500 N   0  0  0  0  0  0  0  0  0  0  0  0
  -10.1921    0.7753  -24.5052 C   0  0  0  0  0  0  0  0  0  0  0  0
  -10.9153   -0.3833  -23.8847 C   0  0  0  0  0  0  0  0  0  0  0  0
  -12.3004   -0.1980  -23.3399 C   0  0  0  0  0  0  0  0  0  0  0  0
  -13.0235   -1.3565  -22.7195 C   0  0  0  0  0  0  0  0  0  0  0  0
  -12.3613   -2.7003  -22.6439 C   0  0  0  0  0  0  0  0  0  0  0  0
  -10.9761   -2.8856  -23.1887 C   0  0  0  0  0  0  0  0  0  0  0  0
  -10.2531   -1.7271  -23.8091 C   0  0  0  0  0  0  0  0  0  0  0  0
  3  2  1  0  0  0
  3  4  1  0  0  0
  4  5  1  0  0  0
  5  6  1  0  0  0
  6  7  1  0  0  0
  7  8  2  0  0  0
  7  1  1  0  0  0
  1 12  1  0  0  0
 12 13  2  0  0  0
 13 14  1  0  0  0
 14 15  2  0  0  0
 15 16  1  0  0  0
 16 17  2  0  0  0
 17 18  1  0  0  0
 18 19  2  0  0  0
 19 20  1  0  0  0
 20 21  2  0  0  0
  6  9  1  0  0  0
  9 10  1  0  0  0
 10 11  1  0  0  0
 11  3  1  0  0  0
 21 12  1  0  0  0
 21 16  1  0  0  0
M  END
> <minimizedAffinity>
-5.88625

> <CNNscore>
0.4081369340

> <CNNaffinity>
4.6228475571

> <CNN_VS>
1.8867548704

> <CNNaffinity_variance>
0.1694368571

$$$$



 21 23  0  0  0  0  0  0  0  0999 V2000
   -7.5006   -0.5502  -22.0862 C   0  0  0  0  0  0  0  0  0  0  0  0
  -10.4510   -5.8195  -26.3588 C   0  0  0  0  0  0  0  0  0  0  0  0
   -9.9566   -4.7302  -25.4539 C   0  0  0  0  0  0  0  0  0  0  0  0
   -8.4797   -4.4713  -25.4935 C   0  0  0  0  0  0  0  0  0  0  0  0
   -7.6859   -3.4621  -24.7180 C   0  0  0  0  0  0  0  0  0  0  0  0
   -8.1731   -2.4625  -23.7114 N   0  0  0  0  0  0  0  0  0  0  0  0
   -7.1197   -1.5839  -23.1042 C   0  0  0  0  0  0  0  0  0  0  0  0
   -5.6854   -1.7392  -23.5151 O   0  0  0  0  0  0  0  0  0  0  0  0
   -9.5743   -2.2252  -23.2316 C   0  0  0  0  0  0  0  0  0  0  0  0
  -10.8344   -2.9289  -23.6399 C   0  0  0  0  0  0  0  0  0  0  0  0
  -11.0046   -4.0438  -24.6290 O   0  0  0  0  0  0  0  0  0  0  0  0
   -6.7164   -0.4262  -20.8136 C   0  0  0  0  0  0  0  0  0  0  0  0
   -7.1404   -1.1894  -19.5939 C   0  0  0  0  0  0  0  0  0  0  0  0
   -6.3562   -1.0654  -18.3213 N   0  0  0  0  0  0  0  0  0  0  0  0
   -5.1479   -0.1782  -18.2683 C   0  0  0  0  0  0  0  0  0  0  0  0
   -4.7238    0.5851  -19.4880 C   0  0  0  0  0  0  0  0  0  0  0  0
   -3.5156    1.4723  -19.4351 C   0  0  0  0  0  0  0  0  0  0  0  0
   -3.0915    2.2355  -20.6547 C   0  0  0  0  0  0  0  0  0  0  0  0
   -3.8757    2.1115  -21.9274 C   0  0  0  0  0  0  0  0  0  0  0  0
   -5.0840    1.2243  -21.9803 C   0  0  0  0  0  0  0  0  0  0  0  0
   -5.5081    0.4611  -20.7607 C   0  0  0  0  0  0  0  0  0  0  0  0
  3  2  1  0  0  0
  3  4  1  0  0  0
  4  5  1  0  0  0
  5  6  1  0  0  0
  6  7  1  0  0  0
  7  8  2  0  0  0
  7  1  1  0  0  0
  1 12  1  0  0  0
 12 13  2  0  0  0
 13 14  1  0  0  0
 14 15  2  0  0  0
 15 16  1  0  0  0
 16 17  2  0  0  0
 17 18  1  0  0  0
 18 19  2  0  0  0
 19 20  1  0  0  0
 20 21  2  0  0  0
  6  9  1  0  0  0
  9 10  1  0  0  0
 10 11  1  0  0  0
 11  3  1  0  0  0
 21 12  1  0  0  0
 21 16  1  0  0  0
M  END
> <minimizedAffinity>
-6.56651

> <CNNscore>
0.4039636254

> <CNNaffinity>
4.5993356705

> <CNN_VS>
1.8579642773

> <CNNaffinity_variance>
0.1087434515

$$$$



 21 23  0  0  0  0  0  0  0  0999 V2000
   -9.9821   -2.8050  -22.9977 C   0  0  0  0  0  0  0  0  0  0  0  0
   -4.9404   -7.7023  -25.3046 C   0  0  0  0  0  0  0  0  0  0  0  0
   -5.8985   -6.6928  -24.7455 C   0  0  0  0  0  0  0  0  0  0  0  0
   -7.1155   -6.4193  -25.5787 C   0  0  0  0  0  0  0  0  0  0  0  0
   -8.2476   -5.4757  -25.2994 C   0  0  0  0  0  0  0  0  0  0  0  0
   -8.4422   -4.5724  -24.1178 N   0  0  0  0  0  0  0  0  0  0  0  0
   -9.6914   -3.7421  -24.1322 C   0  0  0  0  0  0  0  0  0  0  0  0
  -10.6498   -3.8489  -25.2812 O   0  0  0  0  0  0  0  0  0  0  0  0
   -7.5530   -4.3896  -22.9238 C   0  0  0  0  0  0  0  0  0  0  0  0
   -6.2494   -5.0650  -22.6164 C   0  0  0  0  0  0  0  0  0  0  0  0
   -5.5131   -6.0900  -23.4271 O   0  0  0  0  0  0  0  0  0  0  0  0
  -11.2537   -2.0094  -22.9891 C   0  0  0  0  0  0  0  0  0  0  0  0
  -12.5504   -2.6717  -22.6285 C   0  0  0  0  0  0  0  0  0  0  0  0
  -13.8220   -1.8762  -22.6199 N   0  0  0  0  0  0  0  0  0  0  0  0
  -13.7970   -0.4183  -22.9719 C   0  0  0  0  0  0  0  0  0  0  0  0
  -12.5003    0.2441  -23.3325 C   0  0  0  0  0  0  0  0  0  0  0  0
  -12.4754    1.7020  -23.6844 C   0  0  0  0  0  0  0  0  0  0  0  0
  -11.1788    2.3643  -24.0450 C   0  0  0  0  0  0  0  0  0  0  0  0
   -9.9071    1.5687  -24.0536 C   0  0  0  0  0  0  0  0  0  0  0  0
   -9.9321    0.1109  -23.7016 C   0  0  0  0  0  0  0  0  0  0  0  0
  -11.2287   -0.5515  -23.3411 C   0  0  0  0  0  0  0  0  0  0  0  0
  3  2  1  0  0  0
  3  4  1  0  0  0
  4  5  1  0  0  0
  5  6  1  0  0  0
  6  7  1  0  0  0
  7  8  2  0  0  0
  7  1  1  0  0  0
  1 12  1  0  0  0
 12 13  2  0  0  0
 13 14  1  0  0  0
 14 15  2  0  0  0
 15 16  1  0  0  0
 16 17  2  0  0  0
 17 18  1  0  0  0
 18 19  2  0  0  0
 19 20  1  0  0  0
 20 21  2  0  0  0
  6  9  1  0  0  0
  9 10  1  0  0  0
 10 11  1  0  0  0
 11  3  1  0  0  0
 21 12  1  0  0  0
 21 16  1  0  0  0
M  END
> <minimizedAffinity>
-6.17856

> <CNNscore>
0.3637022078

> <CNNaffinity>
4.4506864548

> <CNN_VS>
1.6187244654

> <CNNaffinity_variance>
0.5725317001

$$$$



 21 23  0  0  0  0  0  0  0  0999 V2000
   -7.9582    0.2796  -22.5615 C   0  0  0  0  0  0  0  0  0  0  0  0
   -1.2940    2.1422  -19.9453 C   0  0  0  0  0  0  0  0  0  0  0  0
   -2.6153    1.8118  -20.5737 C   0  0  0  0  0  0  0  0  0  0  0  0
   -3.5924    1.0903  -19.6935 C   0  0  0  0  0  0  0  0  0  0  0  0
   -4.9803    0.6254  -20.0213 C   0  0  0  0  0  0  0  0  0  0  0  0
   -5.7340    0.7672  -21.3105 N   0  0  0  0  0  0  0  0  0  0  0  0
   -7.1189    0.1911  -21.3215 C   0  0  0  0  0  0  0  0  0  0  0  0
   -7.6645   -0.4735  -20.0924 O   0  0  0  0  0  0  0  0  0  0  0  0
   -5.2859    1.4089  -22.5901 C   0  0  0  0  0  0  0  0  0  0  0  0
   -3.9734    2.0673  -22.8966 C   0  0  0  0  0  0  0  0  0  0  0  0
   -2.7849    2.2467  -21.9992 O   0  0  0  0  0  0  0  0  0  0  0  0
   -9.1326   -0.6364  -22.7393 C   0  0  0  0  0  0  0  0  0  0  0  0
   -8.9495   -2.1210  -22.6276 C   0  0  0  0  0  0  0  0  0  0  0  0
  -10.1239   -3.0370  -22.8053 N   0  0  0  0  0  0  0  0  0  0  0  0
  -11.4814   -2.4685  -23.0947 C   0  0  0  0  0  0  0  0  0  0  0  0
  -11.6646   -0.9839  -23.2065 C   0  0  0  0  0  0  0  0  0  0  0  0
  -13.0222   -0.4154  -23.4959 C   0  0  0  0  0  0  0  0  0  0  0  0
  -13.2053    1.0692  -23.6076 C   0  0  0  0  0  0  0  0  0  0  0  0
  -12.0309    1.9852  -23.4299 C   0  0  0  0  0  0  0  0  0  0  0  0
  -10.6733    1.4167  -23.1404 C   0  0  0  0  0  0  0  0  0  0  0  0
  -10.4902   -0.0678  -23.0287 C   0  0  0  0  0  0  0  0  0  0  0  0
  3  2  1  0  0  0
  3  4  1  0  0  0
  4  5  1  0  0  0
  5  6  1  0  0  0
  6  7  1  0  0  0
  7  8  2  0  0  0
  7  1  1  0  0  0
  1 12  1  0  0  0
 12 13  2  0  0  0
 13 14  1  0  0  0
 14 15  2  0  0  0
 15 16  1  0  0  0
 16 17  2  0  0  0
 17 18  1  0  0  0
 18 19  2  0  0  0
 19 20  1  0  0  0
 20 21  2  0  0  0
  6  9  1  0  0  0
  9 10  1  0  0  0
 10 11  1  0  0  0
 11  3  1  0  0  0
 21 12  1  0  0  0
 21 16  1  0  0  0
M  END
> <minimizedAffinity>
-6.50774

> <CNNscore>
0.3613573015

> <CNNaffinity>
4.3424921036

> <CNN_VS>
1.5691912174

> <CNNaffinity_variance>
0.2916428149

$$$$



 21 23  0  0  0  0  0  0  0  0999 V2000
   -6.7211   -0.1630  -22.4450 C   0  0  0  0  0  0  0  0  0  0  0  0
  -14.0322   -0.8663  -23.3271 C   0  0  0  0  0  0  0  0  0  0  0  0
  -12.5467   -0.8334  -23.1220 C   0  0  0  0  0  0  0  0  0  0  0  0
  -11.8889    0.4970  -23.3400 C   0  0  0  0  0  0  0  0  0  0  0  0
  -10.4374    0.8542  -23.2160 C   0  0  0  0  0  0  0  0  0  0  0  0
   -9.2851   -0.0308  -22.8432 N   0  0  0  0  0  0  0  0  0  0  0  0
   -7.9403    0.6326  -22.8063 C   0  0  0  0  0  0  0  0  0  0  0  0
   -7.8147    2.0918  -23.1308 O   0  0  0  0  0  0  0  0  0  0  0  0
   -9.2997   -1.4915  -22.5026 C   0  0  0  0  0  0  0  0  0  0  0  0
  -10.4703   -2.4280  -22.4505 C   0  0  0  0  0  0  0  0  0  0  0  0
  -11.9154   -2.1351  -22.7262 O   0  0  0  0  0  0  0  0  0  0  0  0
   -6.1018   -0.0114  -21.0873 C   0  0  0  0  0  0  0  0  0  0  0  0
   -6.7649   -0.6215  -19.8881 C   0  0  0  0  0  0  0  0  0  0  0  0
   -6.1455   -0.4699  -18.5304 N   0  0  0  0  0  0  0  0  0  0  0  0
   -4.8631    0.2918  -18.3718 C   0  0  0  0  0  0  0  0  0  0  0  0
   -4.2000    0.9020  -19.5710 C   0  0  0  0  0  0  0  0  0  0  0  0
   -2.9175    1.6637  -19.4125 C   0  0  0  0  0  0  0  0  0  0  0  0
   -2.2545    2.2738  -20.6116 C   0  0  0  0  0  0  0  0  0  0  0  0
   -2.8738    2.1222  -21.9694 C   0  0  0  0  0  0  0  0  0  0  0  0
   -4.1562    1.3605  -22.1279 C   0  0  0  0  0  0  0  0  0  0  0  0
   -4.8193    0.7504  -20.9288 C   0  0  0  0  0  0  0  0  0  0  0  0
  3  2  1  0  0  0
  3  4  1  0  0  0
  4  5  1  0  0  0
  5  6  1  0  0  0
  6  7  1  0  0  0
  7  8  2  0  0  0
  7  1  1  0  0  0
  1 12  1  0  0  0
 12 13  2  0  0  0
 13 14  1  0  0  0
 14 15  2  0  0  0
 15 16  1  0  0  0
 16 17  2  0  0  0
 17 18  1  0  0  0
 18 19  2  0  0  0
 19 20  1  0  0  0
 20 21  2  0  0  0
  6  9  1  0  0  0
  9 10  1  0  0  0
 10 11  1  0  0  0
 11  3  1  0  0  0
 21 12  1  0  0  0
 21 16  1  0  0  0
M  END
> <minimizedAffinity>
-6.18530

> <CNNscore>
0.3574674726

> <CNNaffinity>
4.5926465988

> <CNN_VS>
1.6417217255

> <CNNaffinity_variance>
0.1357018799

$$$$



 21 23  0  0  0  0  0  0  0  0999 V2000
   -8.7842   -1.3642  -23.5850 C   0  0  0  0  0  0  0  0  0  0  0  0
   -4.9837   -7.6836  -24.1741 C   0  0  0  0  0  0  0  0  0  0  0  0
   -5.7857   -6.4161  -24.1621 C   0  0  0  0  0  0  0  0  0  0  0  0
   -5.7849   -5.6576  -22.8680 C   0  0  0  0  0  0  0  0  0  0  0  0
   -6.4806   -4.3703  -22.5379 C   0  0  0  0  0  0  0  0  0  0  0  0
   -7.3490   -3.5236  -23.4205 N   0  0  0  0  0  0  0  0  0  0  0  0
   -7.9036   -2.2812  -22.7890 C   0  0  0  0  0  0  0  0  0  0  0  0
   -7.5775   -1.9557  -21.3615 O   0  0  0  0  0  0  0  0  0  0  0  0
   -7.7360   -3.7550  -24.8511 C   0  0  0  0  0  0  0  0  0  0  0  0
   -7.3504   -4.8902  -25.7524 C   0  0  0  0  0  0  0  0  0  0  0  0
   -6.4824   -6.0746  -25.4458 O   0  0  0  0  0  0  0  0  0  0  0  0
  -10.2644   -1.3485  -23.3425 C   0  0  0  0  0  0  0  0  0  0  0  0
  -10.9752   -2.6126  -22.9594 C   0  0  0  0  0  0  0  0  0  0  0  0
  -12.4553   -2.5969  -22.7170 N   0  0  0  0  0  0  0  0  0  0  0  0
  -13.2248   -1.3170  -22.8576 C   0  0  0  0  0  0  0  0  0  0  0  0
  -12.5141   -0.0528  -23.2407 C   0  0  0  0  0  0  0  0  0  0  0  0
  -13.2835    1.2271  -23.3813 C   0  0  0  0  0  0  0  0  0  0  0  0
  -12.5728    2.4912  -23.7644 C   0  0  0  0  0  0  0  0  0  0  0  0
  -11.0926    2.4755  -24.0069 C   0  0  0  0  0  0  0  0  0  0  0  0
  -10.3232    1.1956  -23.8662 C   0  0  0  0  0  0  0  0  0  0  0  0
  -11.0339   -0.0685  -23.4832 C   0  0  0  0  0  0  0  0  0  0  0  0
  3  2  1  0  0  0
  3  4  1  0  0  0
  4  5  1  0  0  0
  5  6  1  0  0  0
  6  7  1  0  0  0
  7  8  2  0  0  0
  7  1  1  0  0  0
  1 12  1  0  0  0
 12 13  2  0  0  0
 13 14  1  0  0  0
 14 15  2  0  0  0
 15 16  1  0  0  0
 16 17  2  0  0  0
 17 18  1  0  0  0
 18 19  2  0  0  0
 19 20  1  0  0  0
 20 21  2  0  0  0
  6  9  1  0  0  0
  9 10  1  0  0  0
 10 11  1  0  0  0
 11  3  1  0  0  0
 21 12  1  0  0  0
 21 16  1  0  0  0
M  END
> <minimizedAffinity>
-5.91688

> <CNNscore>
0.3368228376

> <CNNaffinity>
4.6255979538

> <CNN_VS>
1.5580070019

> <CNNaffinity_variance>
0.1317546368

$$$$
