


 35 40  0  0  0  0  0  0  0  0999 V2000
   10.7943   -0.3299   22.8671 N   0  0  0  0  0  0  0  0  0  0  0  0
    9.5437   -1.1373   22.6828 C   0  0  0  0  0  0  0  0  0  0  0  0
    9.2980   -2.3453   23.5374 C   0  0  0  0  0  0  0  0  0  0  0  0
    8.9176   -3.5712   24.3136 C   0  0  0  0  0  0  0  0  0  0  0  0
    9.3424   -4.2760   25.2075 O   0  0  0  0  0  0  0  0  0  0  0  0
    7.5927   -4.0522   23.8004 N   0  0  0  0  0  0  0  0  0  0  0  0
    7.1543   -3.1235   22.7070 C   0  0  0  0  0  0  0  0  0  0  0  0
    8.2083   -2.0686   22.5445 C   0  0  0  0  0  0  0  0  0  0  0  0
    8.1777   -0.9359   21.5617 C   0  0  0  0  0  0  0  0  0  0  0  0
   10.3030   -2.7458   24.5765 C   0  0  0  0  0  0  0  0  0  0  0  0
   10.0574   -3.9538   25.4312 C   0  0  0  0  0  0  0  0  0  0  0  0
   11.0623   -4.3542   26.4702 C   0  0  0  0  0  0  0  0  0  0  0  0
   10.8167   -5.5622   27.3249 F   0  0  0  0  0  0  0  0  0  0  0  0
   12.3129   -3.5468   26.6546 C   0  0  0  0  0  0  0  0  0  0  0  0
   12.5586   -2.3388   25.7999 C   0  0  0  0  0  0  0  0  0  0  0  0
   11.5536   -1.9384   24.7609 C   0  0  0  0  0  0  0  0  0  0  0  0
   11.7992   -0.7304   23.9062 C   0  0  0  0  0  0  0  0  0  0  0  0
   13.0499    0.0771   24.0905 O   0  0  0  0  0  0  0  0  0  0  0  0
    6.8386   -5.2512   24.2939 C   0  0  0  0  0  0  0  0  0  0  0  0
    7.2280   -6.6243   23.8323 C   0  0  0  0  0  0  0  0  0  0  0  0
    6.4740   -7.8234   24.3258 N   0  0  0  0  0  0  0  0  0  0  0  0
    5.3305   -7.6494   25.2809 C   0  0  0  0  0  0  0  0  0  0  0  0
    4.9412   -6.2763   25.7425 C   0  0  0  0  0  0  0  0  0  0  0  0
    3.7977   -6.1024   26.6977 C   0  0  0  0  0  0  0  0  0  0  0  0
    3.4084   -4.7293   27.1592 C   0  0  0  0  0  0  0  0  0  0  0  0
    4.1624   -3.5302   26.6657 C   0  0  0  0  0  0  0  0  0  0  0  0
    5.3058   -3.7042   25.7106 C   0  0  0  0  0  0  0  0  0  0  0  0
    5.6952   -5.0773   25.2490 C   0  0  0  0  0  0  0  0  0  0  0  0
   11.0399    0.8781   22.0124 C   0  0  0  0  0  0  0  0  0  0  0  0
   10.6011    6.0391   23.0383 C   0  0  0  0  0  0  0  0  0  0  0  0
   10.2785    4.5819   22.8888 C   0  0  0  0  0  0  0  0  0  0  0  0
   11.2185    3.5153   22.4102 N   0  0  0  0  0  0  0  0  0  0  0  0
   10.4802    2.2096   22.4172 C   0  0  0  0  0  0  0  0  0  0  0  0
    9.0839    2.4692   22.9000 N   0  0  0  0  0  0  0  0  0  0  0  0
    8.9593    3.9354   23.1914 O   0  0  0  0  0  0  0  0  0  0  0  0
 30 31  1  0  0  0
 31 32  2  0  0  0
 32 33  1  0  0  0
 33 29  1  0  0  0
 29  1  1  0  0  0
  1  2  1  0  0  0
  3  2  1  0  0  0
  3  4  1  0  0  0
  4  5  2  0  0  0
  4  6  1  0  0  0
  6 19  1  0  0  0
 19 20  2  0  0  0
 20 21  1  0  0  0
 21 22  2  0  0  0
 22 23  1  0  0  0
 23 24  2  0  0  0
 24 25  1  0  0  0
 25 26  2  0  0  0
 26 27  1  0  0  0
 27 28  2  0  0  0
  6  7  1  0  0  0
  7  8  1  0  0  0
  8  9  1  0  0  0
  3 10  1  0  0  0
 10 11  2  0  0  0
 11 12  1  0  0  0
 12 13  1  0  0  0
 12 14  2  0  0  0
 14 15  1  0  0  0
 15 16  2  0  0  0
 16 17  1  0  0  0
 17 18  2  0  0  0
 33 34  2  0  0  0
 34 35  1  0  0  0
 35 31  1  0  0  0
 17  1  1  0  0  0
  8  3  1  0  0  0
 16 10  1  0  0  0
 28 19  1  0  0  0
 28 23  1  0  0  0
M  END
> <minimizedAffinity>
-8.77150

> <CNNscore>
0.3729219735

> <CNNaffinity>
6.7665719986

> <CNN_VS>
2.5234034061

> <CNNaffinity_variance>
0.1712884009

$$$$



 35 40  0  0  0  0  0  0  0  0999 V2000
    7.6311   -1.5595   24.1381 N   0  0  0  0  0  0  0  0  0  0  0  0
    7.5352   -0.0731   23.9612 C   0  0  0  0  0  0  0  0  0  0  0  0
    8.7572    0.7202   23.6045 C   0  0  0  0  0  0  0  0  0  0  0  0
    9.8873    1.6407   23.2500 C   0  0  0  0  0  0  0  0  0  0  0  0
   11.0777    1.6035   23.0097 O   0  0  0  0  0  0  0  0  0  0  0  0
    9.3429    3.0365   23.1775 N   0  0  0  0  0  0  0  0  0  0  0  0
    7.8763    2.9787   23.4872 C   0  0  0  0  0  0  0  0  0  0  0  0
    7.5144    1.5472   23.7511 C   0  0  0  0  0  0  0  0  0  0  0  0
    6.1493    1.0329   24.1004 C   0  0  0  0  0  0  0  0  0  0  0  0
   10.0753    0.0270   23.4247 C   0  0  0  0  0  0  0  0  0  0  0  0
   11.2974    0.8203   23.0681 C   0  0  0  0  0  0  0  0  0  0  0  0
   12.6154    0.1272   22.8883 C   0  0  0  0  0  0  0  0  0  0  0  0
   13.8375    0.9204   22.5316 F   0  0  0  0  0  0  0  0  0  0  0  0
   12.7113   -1.3593   23.0651 C   0  0  0  0  0  0  0  0  0  0  0  0
   11.4893   -2.1526   23.4218 C   0  0  0  0  0  0  0  0  0  0  0  0
   10.1713   -1.4594   23.6016 C   0  0  0  0  0  0  0  0  0  0  0  0
    8.9491   -2.2527   23.9583 C   0  0  0  0  0  0  0  0  0  0  0  0
    9.0451   -3.7391   24.1351 O   0  0  0  0  0  0  0  0  0  0  0  0
   10.1273    4.2730   22.8524 C   0  0  0  0  0  0  0  0  0  0  0  0
   11.4733    4.1576   22.2005 C   0  0  0  0  0  0  0  0  0  0  0  0
   12.2577    5.3941   21.8754 N   0  0  0  0  0  0  0  0  0  0  0  0
   11.6961    6.7461   22.2021 C   0  0  0  0  0  0  0  0  0  0  0  0
   10.3500    6.8615   22.8539 C   0  0  0  0  0  0  0  0  0  0  0  0
    9.7884    8.2136   23.1806 C   0  0  0  0  0  0  0  0  0  0  0  0
    8.4423    8.3289   23.8324 C   0  0  0  0  0  0  0  0  0  0  0  0
    7.6579    7.0924   24.1575 C   0  0  0  0  0  0  0  0  0  0  0  0
    8.2196    5.7404   23.8308 C   0  0  0  0  0  0  0  0  0  0  0  0
    9.5656    5.6250   23.1790 C   0  0  0  0  0  0  0  0  0  0  0  0
    6.4090   -2.3528   24.4947 C   0  0  0  0  0  0  0  0  0  0  0  0
    4.4308   -4.8204   28.7230 C   0  0  0  0  0  0  0  0  0  0  0  0
    5.3217   -4.0029   27.8355 C   0  0  0  0  0  0  0  0  0  0  0  0
    5.0982   -3.7227   26.3790 N   0  0  0  0  0  0  0  0  0  0  0  0
    6.2311   -2.8686   25.8920 C   0  0  0  0  0  0  0  0  0  0  0  0
    7.1548   -2.6209   27.0476 N   0  0  0  0  0  0  0  0  0  0  0  0
    6.5928   -3.3219   28.2488 O   0  0  0  0  0  0  0  0  0  0  0  0
 30 31  1  0  0  0
 31 32  2  0  0  0
 32 33  1  0  0  0
 33 29  1  0  0  0
 29  1  1  0  0  0
  1  2  1  0  0  0
  3  2  1  0  0  0
  3  4  1  0  0  0
  4  5  2  0  0  0
  4  6  1  0  0  0
  6 19  1  0  0  0
 19 20  2  0  0  0
 20 21  1  0  0  0
 21 22  2  0  0  0
 22 23  1  0  0  0
 23 24  2  0  0  0
 24 25  1  0  0  0
 25 26  2  0  0  0
 26 27  1  0  0  0
 27 28  2  0  0  0
  6  7  1  0  0  0
  7  8  1  0  0  0
  8  9  1  0  0  0
  3 10  1  0  0  0
 10 11  2  0  0  0
 11 12  1  0  0  0
 12 13  1  0  0  0
 12 14  2  0  0  0
 14 15  1  0  0  0
 15 16  2  0  0  0
 16 17  1  0  0  0
 17 18  2  0  0  0
 33 34  2  0  0  0
 34 35  1  0  0  0
 35 31  1  0  0  0
 17  1  1  0  0  0
  8  3  1  0  0  0
 16 10  1  0  0  0
 28 19  1  0  0  0
 28 23  1  0  0  0
M  END
> <minimizedAffinity>
-7.62653

> <CNNscore>
0.2609176040

> <CNNaffinity>
6.4801535606

> <CNN_VS>
1.6907861233

> <CNNaffinity_variance>
0.1902089864

$$$$



 35 40  0  0  0  0  0  0  0  0999 V2000
   10.4026    0.2669   23.2395 N   0  0  0  0  0  0  0  0  0  0  0  0
    9.0077   -0.2556   23.4158 C   0  0  0  0  0  0  0  0  0  0  0  0
    8.7436   -1.3812   24.3713 C   0  0  0  0  0  0  0  0  0  0  0  0
    8.3285   -2.4959   25.2852 C   0  0  0  0  0  0  0  0  0  0  0  0
    8.8116   -3.2730   26.0846 O   0  0  0  0  0  0  0  0  0  0  0  0
    6.8471   -2.6844   25.1433 N   0  0  0  0  0  0  0  0  0  0  0  0
    6.3467   -1.6862   24.1417 C   0  0  0  0  0  0  0  0  0  0  0  0
    7.5188   -0.8808   23.6646 C   0  0  0  0  0  0  0  0  0  0  0  0
    7.4739    0.2299   22.6575 C   0  0  0  0  0  0  0  0  0  0  0  0
    9.8745   -1.9845   25.1506 C   0  0  0  0  0  0  0  0  0  0  0  0
    9.6104   -3.1101   26.1062 C   0  0  0  0  0  0  0  0  0  0  0  0
   10.7412   -3.7133   26.8854 C   0  0  0  0  0  0  0  0  0  0  0  0
   10.4772   -4.8390   27.8410 F   0  0  0  0  0  0  0  0  0  0  0  0
   12.1362   -3.1908   26.7092 C   0  0  0  0  0  0  0  0  0  0  0  0
   12.4003   -2.0651   25.7536 C   0  0  0  0  0  0  0  0  0  0  0  0
   11.2694   -1.4620   24.9744 C   0  0  0  0  0  0  0  0  0  0  0  0
   11.5335   -0.3362   24.0188 C   0  0  0  0  0  0  0  0  0  0  0  0
   12.9285    0.1863   23.8425 O   0  0  0  0  0  0  0  0  0  0  0  0
    6.0128   -3.6938   25.8747 C   0  0  0  0  0  0  0  0  0  0  0  0
    5.6043   -4.9654   25.1919 C   0  0  0  0  0  0  0  0  0  0  0  0
    4.7699   -5.9748   25.9232 N   0  0  0  0  0  0  0  0  0  0  0  0
    4.3440   -5.7127   27.3374 C   0  0  0  0  0  0  0  0  0  0  0  0
    4.7525   -4.4410   28.0202 C   0  0  0  0  0  0  0  0  0  0  0  0
    4.3265   -4.1789   29.4344 C   0  0  0  0  0  0  0  0  0  0  0  0
    4.7350   -2.9072   30.1171 C   0  0  0  0  0  0  0  0  0  0  0  0
    5.5694   -1.8978   29.3858 C   0  0  0  0  0  0  0  0  0  0  0  0
    5.9953   -2.1600   27.9716 C   0  0  0  0  0  0  0  0  0  0  0  0
    5.5869   -3.4316   27.2888 C   0  0  0  0  0  0  0  0  0  0  0  0
   10.6667    1.3927   22.2839 C   0  0  0  0  0  0  0  0  0  0  0  0
   10.7888    6.6024   23.1348 C   0  0  0  0  0  0  0  0  0  0  0  0
   10.3096    5.1850   23.0300 C   0  0  0  0  0  0  0  0  0  0  0  0
   11.1303    4.0065   22.5965 N   0  0  0  0  0  0  0  0  0  0  0  0
   10.2535    2.7902   22.6389 C   0  0  0  0  0  0  0  0  0  0  0  0
    8.8908    3.2169   23.0985 N   0  0  0  0  0  0  0  0  0  0  0  0
    8.9256    4.6969   23.3402 O   0  0  0  0  0  0  0  0  0  0  0  0
 30 31  1  0  0  0
 31 32  2  0  0  0
 32 33  1  0  0  0
 33 29  1  0  0  0
 29  1  1  0  0  0
  1  2  1  0  0  0
  3  2  1  0  0  0
  3  4  1  0  0  0
  4  5  2  0  0  0
  4  6  1  0  0  0
  6 19  1  0  0  0
 19 20  2  0  0  0
 20 21  1  0  0  0
 21 22  2  0  0  0
 22 23  1  0  0  0
 23 24  2  0  0  0
 24 25  1  0  0  0
 25 26  2  0  0  0
 26 27  1  0  0  0
 27 28  2  0  0  0
  6  7  1  0  0  0
  7  8  1  0  0  0
  8  9  1  0  0  0
  3 10  1  0  0  0
 10 11  2  0  0  0
 11 12  1  0  0  0
 12 13  1  0  0  0
 12 14  2  0  0  0
 14 15  1  0  0  0
 15 16  2  0  0  0
 16 17  1  0  0  0
 17 18  2  0  0  0
 33 34  2  0  0  0
 34 35  1  0  0  0
 35 31  1  0  0  0
 17  1  1  0  0  0
  8  3  1  0  0  0
 16 10  1  0  0  0
 28 19  1  0  0  0
 28 23  1  0  0  0
M  END
> <minimizedAffinity>
-7.89010

> <CNNscore>
0.2587601244

> <CNNaffinity>
6.4936866760

> <CNN_VS>
1.6803071499

> <CNNaffinity_variance>
0.2138210833

$$$$



 35 40  0  0  0  0  0  0  0  0999 V2000
    9.7039    0.4240   23.8507 N   0  0  0  0  0  0  0  0  0  0  0  0
    8.3525   -0.0488   24.2979 C   0  0  0  0  0  0  0  0  0  0  0  0
    8.2347   -1.2535   25.1838 C   0  0  0  0  0  0  0  0  0  0  0  0
    7.9616   -2.4360   26.0654 C   0  0  0  0  0  0  0  0  0  0  0  0
    8.5585   -3.3127   26.6581 O   0  0  0  0  0  0  0  0  0  0  0  0
    6.4772   -2.5402   26.2544 N   0  0  0  0  0  0  0  0  0  0  0  0
    5.8329   -1.4221   25.4897 C   0  0  0  0  0  0  0  0  0  0  0  0
    6.9191   -0.6269   24.8280 C   0  0  0  0  0  0  0  0  0  0  0  0
    6.7239    0.5825   23.9625 C   0  0  0  0  0  0  0  0  0  0  0  0
    9.4684   -1.9854   25.6225 C   0  0  0  0  0  0  0  0  0  0  0  0
    9.3507   -3.1901   26.5084 C   0  0  0  0  0  0  0  0  0  0  0  0
   10.5843   -3.9219   26.9470 C   0  0  0  0  0  0  0  0  0  0  0  0
   10.4666   -5.1266   27.8329 F   0  0  0  0  0  0  0  0  0  0  0  0
   11.9358   -3.4490   26.4998 C   0  0  0  0  0  0  0  0  0  0  0  0
   12.0535   -2.2443   25.6139 C   0  0  0  0  0  0  0  0  0  0  0  0
   10.8199   -1.5125   25.1753 C   0  0  0  0  0  0  0  0  0  0  0  0
   10.9376   -0.3078   24.2893 C   0  0  0  0  0  0  0  0  0  0  0  0
   12.2890    0.1651   23.8421 O   0  0  0  0  0  0  0  0  0  0  0  0
    5.7626   -3.5800   27.0657 C   0  0  0  0  0  0  0  0  0  0  0  0
    5.6077   -3.3998   28.5468 C   0  0  0  0  0  0  0  0  0  0  0  0
    4.8931   -4.4396   29.3581 N   0  0  0  0  0  0  0  0  0  0  0  0
    4.3334   -5.6595   28.6884 C   0  0  0  0  0  0  0  0  0  0  0  0
    4.4882   -5.8396   27.2073 C   0  0  0  0  0  0  0  0  0  0  0  0
    3.9285   -7.0595   26.5375 C   0  0  0  0  0  0  0  0  0  0  0  0
    4.0834   -7.2396   25.0564 C   0  0  0  0  0  0  0  0  0  0  0  0
    4.7980   -6.1998   24.2451 C   0  0  0  0  0  0  0  0  0  0  0  0
    5.3577   -4.9799   24.9149 C   0  0  0  0  0  0  0  0  0  0  0  0
    5.2028   -4.7998   26.3960 C   0  0  0  0  0  0  0  0  0  0  0  0
    9.8216    1.6288   22.9648 C   0  0  0  0  0  0  0  0  0  0  0  0
    5.6263    4.5979   21.7548 C   0  0  0  0  0  0  0  0  0  0  0  0
    6.6802    3.5316   21.7092 C   0  0  0  0  0  0  0  0  0  0  0  0
    7.7957    3.3517   22.6958 N   0  0  0  0  0  0  0  0  0  0  0  0
    8.6086    2.1668   22.2654 C   0  0  0  0  0  0  0  0  0  0  0  0
    7.9956    1.6144   21.0127 N   0  0  0  0  0  0  0  0  0  0  0  0
    6.8037    2.4580   20.6690 O   0  0  0  0  0  0  0  0  0  0  0  0
 30 31  1  0  0  0
 31 32  2  0  0  0
 32 33  1  0  0  0
 33 29  1  0  0  0
 29  1  1  0  0  0
  1  2  1  0  0  0
  3  2  1  0  0  0
  3  4  1  0  0  0
  4  5  2  0  0  0
  4  6  1  0  0  0
  6 19  1  0  0  0
 19 20  2  0  0  0
 20 21  1  0  0  0
 21 22  2  0  0  0
 22 23  1  0  0  0
 23 24  2  0  0  0
 24 25  1  0  0  0
 25 26  2  0  0  0
 26 27  1  0  0  0
 27 28  2  0  0  0
  6  7  1  0  0  0
  7  8  1  0  0  0
  8  9  1  0  0  0
  3 10  1  0  0  0
 10 11  2  0  0  0
 11 12  1  0  0  0
 12 13  1  0  0  0
 12 14  2  0  0  0
 14 15  1  0  0  0
 15 16  2  0  0  0
 16 17  1  0  0  0
 17 18  2  0  0  0
 33 34  2  0  0  0
 34 35  1  0  0  0
 35 31  1  0  0  0
 17  1  1  0  0  0
  8  3  1  0  0  0
 16 10  1  0  0  0
 28 19  1  0  0  0
 28 23  1  0  0  0
M  END
> <minimizedAffinity>
-8.15575

> <CNNscore>
0.2501854599

> <CNNaffinity>
6.4579515457

> <CNN_VS>
1.6156855822

> <CNNaffinity_variance>
0.3841805160

$$$$



 35 40  0  0  0  0  0  0  0  0999 V2000
    5.1899    2.2689   21.7864 N   0  0  0  0  0  0  0  0  0  0  0  0
    6.0435    1.0397   21.8888 C   0  0  0  0  0  0  0  0  0  0  0  0
    6.6114    0.6293   23.2150 C   0  0  0  0  0  0  0  0  0  0  0  0
    7.2450    0.0976   24.4664 C   0  0  0  0  0  0  0  0  0  0  0  0
    7.3285    0.3576   25.6503 O   0  0  0  0  0  0  0  0  0  0  0  0
    8.0065   -1.1443   24.1088 N   0  0  0  0  0  0  0  0  0  0  0  0
    7.8435   -1.3801   22.6365 C   0  0  0  0  0  0  0  0  0  0  0  0
    6.9813   -0.2840   22.0841 C   0  0  0  0  0  0  0  0  0  0  0  0
    6.5626   -0.1285   20.6522 C   0  0  0  0  0  0  0  0  0  0  0  0
    6.3258    1.4482   24.4390 C   0  0  0  0  0  0  0  0  0  0  0  0
    6.8937    1.0379   25.7653 C   0  0  0  0  0  0  0  0  0  0  0  0
    6.6081    1.8567   26.9891 C   0  0  0  0  0  0  0  0  0  0  0  0
    7.1760    1.4464   28.3155 F   0  0  0  0  0  0  0  0  0  0  0  0
    5.7545    3.0859   26.8867 C   0  0  0  0  0  0  0  0  0  0  0  0
    5.1865    3.4962   25.5604 C   0  0  0  0  0  0  0  0  0  0  0  0
    5.4722    2.6774   24.3366 C   0  0  0  0  0  0  0  0  0  0  0  0
    4.9042    3.0877   23.0102 C   0  0  0  0  0  0  0  0  0  0  0  0
    4.0506    4.3169   22.9078 O   0  0  0  0  0  0  0  0  0  0  0  0
    8.7929   -2.0000   25.0571 C   0  0  0  0  0  0  0  0  0  0  0  0
    8.0904   -3.0124   25.9125 C   0  0  0  0  0  0  0  0  0  0  0  0
    8.8767   -3.8681   26.8608 N   0  0  0  0  0  0  0  0  0  0  0  0
   10.3656   -3.7116   26.9537 C   0  0  0  0  0  0  0  0  0  0  0  0
   11.0681   -2.6993   26.0983 C   0  0  0  0  0  0  0  0  0  0  0  0
   12.5571   -2.5427   26.1912 C   0  0  0  0  0  0  0  0  0  0  0  0
   13.2596   -1.5304   25.3358 C   0  0  0  0  0  0  0  0  0  0  0  0
   12.4732   -0.6746   24.3875 C   0  0  0  0  0  0  0  0  0  0  0  0
   10.9843   -0.8312   24.2946 C   0  0  0  0  0  0  0  0  0  0  0  0
   10.2818   -1.8435   25.1500 C   0  0  0  0  0  0  0  0  0  0  0  0
    4.6219    2.6792   20.4600 C   0  0  0  0  0  0  0  0  0  0  0  0
   -0.3251    4.2469   19.4854 C   0  0  0  0  0  0  0  0  0  0  0  0
    0.8638    3.3865   19.7953 C   0  0  0  0  0  0  0  0  0  0  0  0
    2.2816    3.8572   19.9307 N   0  0  0  0  0  0  0  0  0  0  0  0
    3.1378    2.6658   20.2432 C   0  0  0  0  0  0  0  0  0  0  0  0
    2.2491    1.4587   20.3009 N   0  0  0  0  0  0  0  0  0  0  0  0
    0.8437    1.9042   20.0240 O   0  0  0  0  0  0  0  0  0  0  0  0
 30 31  1  0  0  0
 31 32  2  0  0  0
 32 33  1  0  0  0
 33 29  1  0  0  0
 29  1  1  0  0  0
  1  2  1  0  0  0
  3  2  1  0  0  0
  3  4  1  0  0  0
  4  5  2  0  0  0
  4  6  1  0  0  0
  6 19  1  0  0  0
 19 20  2  0  0  0
 20 21  1  0  0  0
 21 22  2  0  0  0
 22 23  1  0  0  0
 23 24  2  0  0  0
 24 25  1  0  0  0
 25 26  2  0  0  0
 26 27  1  0  0  0
 27 28  2  0  0  0
  6  7  1  0  0  0
  7  8  1  0  0  0
  8  9  1  0  0  0
  3 10  1  0  0  0
 10 11  2  0  0  0
 11 12  1  0  0  0
 12 13  1  0  0  0
 12 14  2  0  0  0
 14 15  1  0  0  0
 15 16  2  0  0  0
 16 17  1  0  0  0
 17 18  2  0  0  0
 33 34  2  0  0  0
 34 35  1  0  0  0
 35 31  1  0  0  0
 17  1  1  0  0  0
  8  3  1  0  0  0
 16 10  1  0  0  0
 28 19  1  0  0  0
 28 23  1  0  0  0
M  END
> <minimizedAffinity>
-7.87821

> <CNNscore>
0.2260316014

> <CNNaffinity>
6.2704005241

> <CNN_VS>
1.4173086882

> <CNNaffinity_variance>
0.2233185321

$$$$



 35 40  0  0  0  0  0  0  0  0999 V2000
    7.7761   -1.4980   24.2451 N   0  0  0  0  0  0  0  0  0  0  0  0
    7.6680   -0.0148   24.0496 C   0  0  0  0  0  0  0  0  0  0  0  0
    8.8778    0.7800   23.6563 C   0  0  0  0  0  0  0  0  0  0  0  0
    9.9949    1.7015   23.2653 C   0  0  0  0  0  0  0  0  0  0  0  0
   11.1803    1.6673   23.0006 O   0  0  0  0  0  0  0  0  0  0  0  0
    9.4412    3.0932   23.1848 N   0  0  0  0  0  0  0  0  0  0  0  0
    7.9818    3.0319   23.5260 C   0  0  0  0  0  0  0  0  0  0  0  0
    7.6336    1.6022   23.8174 C   0  0  0  0  0  0  0  0  0  0  0  0
    6.2791    1.0855   24.2024 C   0  0  0  0  0  0  0  0  0  0  0  0
   10.1958    0.0915   23.4585 C   0  0  0  0  0  0  0  0  0  0  0  0
   11.4055    0.8863   23.0653 C   0  0  0  0  0  0  0  0  0  0  0  0
   12.7234    0.1977   22.8675 C   0  0  0  0  0  0  0  0  0  0  0  0
   13.9333    0.9925   22.4742 F   0  0  0  0  0  0  0  0  0  0  0  0
   12.8315   -1.2855   23.0631 C   0  0  0  0  0  0  0  0  0  0  0  0
   11.6217   -2.0803   23.4564 C   0  0  0  0  0  0  0  0  0  0  0  0
   10.3038   -1.3918   23.6541 C   0  0  0  0  0  0  0  0  0  0  0  0
    9.0940   -2.1865   24.0474 C   0  0  0  0  0  0  0  0  0  0  0  0
    9.2020   -3.6698   24.2430 O   0  0  0  0  0  0  0  0  0  0  0  0
   10.2116    4.3292   22.8260 C   0  0  0  0  0  0  0  0  0  0  0  0
   11.5229    4.2134   22.1069 C   0  0  0  0  0  0  0  0  0  0  0  0
   12.2933    5.4494   21.7481 N   0  0  0  0  0  0  0  0  0  0  0  0
   11.7523    6.8013   22.1084 C   0  0  0  0  0  0  0  0  0  0  0  0
   10.4410    6.9171   22.8275 C   0  0  0  0  0  0  0  0  0  0  0  0
    9.9001    8.2691   23.1878 C   0  0  0  0  0  0  0  0  0  0  0  0
    8.5887    8.3848   23.9068 C   0  0  0  0  0  0  0  0  0  0  0  0
    7.8184    7.1488   24.2656 C   0  0  0  0  0  0  0  0  0  0  0  0
    8.3593    5.7969   23.9053 C   0  0  0  0  0  0  0  0  0  0  0  0
    9.6706    5.6811   23.1863 C   0  0  0  0  0  0  0  0  0  0  0  0
    6.5662   -2.2928   24.6385 C   0  0  0  0  0  0  0  0  0  0  0  0
    5.8091   -6.2572   21.2339 C   0  0  0  0  0  0  0  0  0  0  0  0
    6.0052   -5.4871   22.5061 C   0  0  0  0  0  0  0  0  0  0  0  0
    6.1953   -4.0035   22.6183 N   0  0  0  0  0  0  0  0  0  0  0  0
    6.3532   -3.6649   24.0710 C   0  0  0  0  0  0  0  0  0  0  0  0
    6.2608   -4.9394   24.8567 N   0  0  0  0  0  0  0  0  0  0  0  0
    6.0457   -6.0656   23.8895 O   0  0  0  0  0  0  0  0  0  0  0  0
 30 31  1  0  0  0
 31 32  2  0  0  0
 32 33  1  0  0  0
 33 29  1  0  0  0
 29  1  1  0  0  0
  1  2  1  0  0  0
  3  2  1  0  0  0
  3  4  1  0  0  0
  4  5  2  0  0  0
  4  6  1  0  0  0
  6 19  1  0  0  0
 19 20  2  0  0  0
 20 21  1  0  0  0
 21 22  2  0  0  0
 22 23  1  0  0  0
 23 24  2  0  0  0
 24 25  1  0  0  0
 25 26  2  0  0  0
 26 27  1  0  0  0
 27 28  2  0  0  0
  6  7  1  0  0  0
  7  8  1  0  0  0
  8  9  1  0  0  0
  3 10  1  0  0  0
 10 11  2  0  0  0
 11 12  1  0  0  0
 12 13  1  0  0  0
 12 14  2  0  0  0
 14 15  1  0  0  0
 15 16  2  0  0  0
 16 17  1  0  0  0
 17 18  2  0  0  0
 33 34  2  0  0  0
 34 35  1  0  0  0
 35 31  1  0  0  0
 17  1  1  0  0  0
  8  3  1  0  0  0
 16 10  1  0  0  0
 28 19  1  0  0  0
 28 23  1  0  0  0
M  END
> <minimizedAffinity>
-8.34095

> <CNNscore>
0.2123368829

> <CNNaffinity>
6.5770826340

> <CNN_VS>
1.3965572119

> <CNNaffinity_variance>
0.0792534500

$$$$



 35 40  0  0  0  0  0  0  0  0999 V2000
    9.9308    0.0509   22.9676 N   0  0  0  0  0  0  0  0  0  0  0  0
    8.7638   -0.8773   22.8053 C   0  0  0  0  0  0  0  0  0  0  0  0
    8.7012   -2.1492   23.5979 C   0  0  0  0  0  0  0  0  0  0  0  0
    8.5018   -3.4494   24.3188 C   0  0  0  0  0  0  0  0  0  0  0  0
    9.0538   -4.1507   25.1433 O   0  0  0  0  0  0  0  0  0  0  0  0
    7.2060   -4.0440   23.8526 N   0  0  0  0  0  0  0  0  0  0  0  0
    6.6045   -3.1112   22.8436 C   0  0  0  0  0  0  0  0  0  0  0  0
    7.5285   -1.9402   22.6862 C   0  0  0  0  0  0  0  0  0  0  0  0
    7.3171   -0.7662   21.7767 C   0  0  0  0  0  0  0  0  0  0  0  0
    9.8057   -2.4929   24.5530 C   0  0  0  0  0  0  0  0  0  0  0  0
    9.7431   -3.7648   25.3456 C   0  0  0  0  0  0  0  0  0  0  0  0
   10.8475   -4.1085   26.3006 C   0  0  0  0  0  0  0  0  0  0  0  0
   10.7849   -5.3804   27.0933 F   0  0  0  0  0  0  0  0  0  0  0  0
   12.0146   -3.1802   26.4629 C   0  0  0  0  0  0  0  0  0  0  0  0
   12.0772   -1.9083   25.6703 C   0  0  0  0  0  0  0  0  0  0  0  0
   10.9727   -1.5647   24.7153 C   0  0  0  0  0  0  0  0  0  0  0  0
   11.0353   -0.2927   23.9226 C   0  0  0  0  0  0  0  0  0  0  0  0
   12.2023    0.6355   24.0850 O   0  0  0  0  0  0  0  0  0  0  0  0
    6.6154   -5.3432   24.3143 C   0  0  0  0  0  0  0  0  0  0  0  0
    7.1709   -6.6415   23.8083 C   0  0  0  0  0  0  0  0  0  0  0  0
    6.5803   -7.9407   24.2701 N   0  0  0  0  0  0  0  0  0  0  0  0
    5.4343   -7.9417   25.2378 C   0  0  0  0  0  0  0  0  0  0  0  0
    4.8788   -6.6434   25.7439 C   0  0  0  0  0  0  0  0  0  0  0  0
    3.7328   -6.6444   26.7117 C   0  0  0  0  0  0  0  0  0  0  0  0
    3.1774   -5.3461   27.2177 C   0  0  0  0  0  0  0  0  0  0  0  0
    3.7680   -4.0469   26.7560 C   0  0  0  0  0  0  0  0  0  0  0  0
    4.9140   -4.0459   25.7882 C   0  0  0  0  0  0  0  0  0  0  0  0
    5.4694   -5.3442   25.2821 C   0  0  0  0  0  0  0  0  0  0  0  0
    9.9934    1.3229   22.1749 C   0  0  0  0  0  0  0  0  0  0  0  0
    5.5061    4.0004   21.4161 C   0  0  0  0  0  0  0  0  0  0  0  0
    6.8384    3.5733   21.9568 C   0  0  0  0  0  0  0  0  0  0  0  0
    7.6415    2.3944   21.4927 N   0  0  0  0  0  0  0  0  0  0  0  0
    8.9010    2.3425   22.3056 C   0  0  0  0  0  0  0  0  0  0  0  0
    8.8764    3.4894   23.2723 N   0  0  0  0  0  0  0  0  0  0  0  0
    7.6016    4.2500   23.0566 O   0  0  0  0  0  0  0  0  0  0  0  0
 30 31  1  0  0  0
 31 32  2  0  0  0
 32 33  1  0  0  0
 33 29  1  0  0  0
 29  1  1  0  0  0
  1  2  1  0  0  0
  3  2  1  0  0  0
  3  4  1  0  0  0
  4  5  2  0  0  0
  4  6  1  0  0  0
  6 19  1  0  0  0
 19 20  2  0  0  0
 20 21  1  0  0  0
 21 22  2  0  0  0
 22 23  1  0  0  0
 23 24  2  0  0  0
 24 25  1  0  0  0
 25 26  2  0  0  0
 26 27  1  0  0  0
 27 28  2  0  0  0
  6  7  1  0  0  0
  7  8  1  0  0  0
  8  9  1  0  0  0
  3 10  1  0  0  0
 10 11  2  0  0  0
 11 12  1  0  0  0
 12 13  1  0  0  0
 12 14  2  0  0  0
 14 15  1  0  0  0
 15 16  2  0  0  0
 16 17  1  0  0  0
 17 18  2  0  0  0
 33 34  2  0  0  0
 34 35  1  0  0  0
 35 31  1  0  0  0
 17  1  1  0  0  0
  8  3  1  0  0  0
 16 10  1  0  0  0
 28 19  1  0  0  0
 28 23  1  0  0  0
M  END
> <minimizedAffinity>
-8.92116

> <CNNscore>
0.2114656419

> <CNNaffinity>
6.4592690468

> <CNN_VS>
1.3659135103

> <CNNaffinity_variance>
0.4169894755

$$$$



 35 40  0  0  0  0  0  0  0  0999 V2000
    4.7945    2.0245   20.9559 N   0  0  0  0  0  0  0  0  0  0  0  0
    5.6479    0.7927   21.0240 C   0  0  0  0  0  0  0  0  0  0  0  0
    6.3284    0.4219   22.3082 C   0  0  0  0  0  0  0  0  0  0  0  0
    7.0672   -0.0733   23.5161 C   0  0  0  0  0  0  0  0  0  0  0  0
    7.2560    0.2249   24.6788 O   0  0  0  0  0  0  0  0  0  0  0  0
    7.7882   -1.3321   23.1348 N   0  0  0  0  0  0  0  0  0  0  0  0
    7.4951   -1.6150   21.6911 C   0  0  0  0  0  0  0  0  0  0  0  0
    6.5929   -0.5310   21.1803 C   0  0  0  0  0  0  0  0  0  0  0  0
    6.0503   -0.4194   19.7863 C   0  0  0  0  0  0  0  0  0  0  0  0
    6.1557    1.2828   23.5244 C   0  0  0  0  0  0  0  0  0  0  0  0
    6.8362    0.9119   24.8086 C   0  0  0  0  0  0  0  0  0  0  0  0
    6.6635    1.7727   26.0248 C   0  0  0  0  0  0  0  0  0  0  0  0
    7.3441    1.4019   27.3091 F   0  0  0  0  0  0  0  0  0  0  0  0
    5.8101    3.0045   25.9567 C   0  0  0  0  0  0  0  0  0  0  0  0
    5.1295    3.3753   24.6725 C   0  0  0  0  0  0  0  0  0  0  0  0
    5.3023    2.5145   23.4564 C   0  0  0  0  0  0  0  0  0  0  0  0
    4.6217    2.8853   22.1721 C   0  0  0  0  0  0  0  0  0  0  0  0
    3.7683    4.1170   22.1040 O   0  0  0  0  0  0  0  0  0  0  0  0
    8.6509   -2.1623   24.0384 C   0  0  0  0  0  0  0  0  0  0  0  0
    8.0783   -3.3685   24.7220 C   0  0  0  0  0  0  0  0  0  0  0  0
    8.9410   -4.1986   25.6256 N   0  0  0  0  0  0  0  0  0  0  0  0
   10.3763   -3.8227   25.8456 C   0  0  0  0  0  0  0  0  0  0  0  0
   10.9490   -2.6165   25.1620 C   0  0  0  0  0  0  0  0  0  0  0  0
   12.3844   -2.2405   25.3820 C   0  0  0  0  0  0  0  0  0  0  0  0
   12.9569   -1.0343   24.6984 C   0  0  0  0  0  0  0  0  0  0  0  0
   12.0942   -0.2042   23.7948 C   0  0  0  0  0  0  0  0  0  0  0  0
   10.6589   -0.5802   23.5748 C   0  0  0  0  0  0  0  0  0  0  0  0
   10.0863   -1.7863   24.2584 C   0  0  0  0  0  0  0  0  0  0  0  0
    4.1139    2.3953   19.6716 C   0  0  0  0  0  0  0  0  0  0  0  0
   -1.0435    1.7022   20.5671 C   0  0  0  0  0  0  0  0  0  0  0  0
    0.2534    2.2466   20.0459 C   0  0  0  0  0  0  0  0  0  0  0  0
    1.6222    1.7266   20.3714 N   0  0  0  0  0  0  0  0  0  0  0  0
    2.6240    2.5651   19.6343 C   0  0  0  0  0  0  0  0  0  0  0  0
    1.8743    3.6034   18.8531 N   0  0  0  0  0  0  0  0  0  0  0  0
    0.4091    3.4064   19.1076 O   0  0  0  0  0  0  0  0  0  0  0  0
 30 31  1  0  0  0
 31 32  2  0  0  0
 32 33  1  0  0  0
 33 29  1  0  0  0
 29  1  1  0  0  0
  1  2  1  0  0  0
  3  2  1  0  0  0
  3  4  1  0  0  0
  4  5  2  0  0  0
  4  6  1  0  0  0
  6 19  1  0  0  0
 19 20  2  0  0  0
 20 21  1  0  0  0
 21 22  2  0  0  0
 22 23  1  0  0  0
 23 24  2  0  0  0
 24 25  1  0  0  0
 25 26  2  0  0  0
 26 27  1  0  0  0
 27 28  2  0  0  0
  6  7  1  0  0  0
  7  8  1  0  0  0
  8  9  1  0  0  0
  3 10  1  0  0  0
 10 11  2  0  0  0
 11 12  1  0  0  0
 12 13  1  0  0  0
 12 14  2  0  0  0
 14 15  1  0  0  0
 15 16  2  0  0  0
 16 17  1  0  0  0
 17 18  2  0  0  0
 33 34  2  0  0  0
 34 35  1  0  0  0
 35 31  1  0  0  0
 17  1  1  0  0  0
  8  3  1  0  0  0
 16 10  1  0  0  0
 28 19  1  0  0  0
 28 23  1  0  0  0
M  END
> <minimizedAffinity>
-8.45732

> <CNNscore>
0.1815457195

> <CNNaffinity>
6.2292656898

> <CNN_VS>
1.1308965683

> <CNNaffinity_variance>
0.0643703490

$$$$



 35 40  0  0  0  0  0  0  0  0999 V2000
    8.3137   -0.0297   22.9494 N   0  0  0  0  0  0  0  0  0  0  0  0
    7.0533   -0.5124   23.6040 C   0  0  0  0  0  0  0  0  0  0  0  0
    7.1248   -1.4908   24.7387 C   0  0  0  0  0  0  0  0  0  0  0  0
    7.0393   -2.4631   25.8777 C   0  0  0  0  0  0  0  0  0  0  0  0
    7.7652   -3.1236   26.5941 O   0  0  0  0  0  0  0  0  0  0  0  0
    5.5903   -2.6591   26.2122 N   0  0  0  0  0  0  0  0  0  0  0  0
    4.7801   -1.8080   25.2799 C   0  0  0  0  0  0  0  0  0  0  0  0
    5.7285   -1.0860   24.3692 C   0  0  0  0  0  0  0  0  0  0  0  0
    5.3474   -0.1273   23.2803 C   0  0  0  0  0  0  0  0  0  0  0  0
    8.4566   -1.9866   25.2188 C   0  0  0  0  0  0  0  0  0  0  0  0
    8.5280   -2.9650   26.3535 C   0  0  0  0  0  0  0  0  0  0  0  0
    9.8598   -3.4607   26.8336 C   0  0  0  0  0  0  0  0  0  0  0  0
    9.9313   -4.4392   27.9683 F   0  0  0  0  0  0  0  0  0  0  0  0
   11.1202   -2.9781   26.1790 C   0  0  0  0  0  0  0  0  0  0  0  0
   11.0488   -1.9996   25.0443 C   0  0  0  0  0  0  0  0  0  0  0  0
    9.7170   -1.5039   24.5642 C   0  0  0  0  0  0  0  0  0  0  0  0
    9.6455   -0.5254   23.4295 C   0  0  0  0  0  0  0  0  0  0  0  0
   10.9058   -0.0427   22.7749 O   0  0  0  0  0  0  0  0  0  0  0  0
    5.0469   -3.5499   27.2898 C   0  0  0  0  0  0  0  0  0  0  0  0
    4.7641   -2.9914   28.6529 C   0  0  0  0  0  0  0  0  0  0  0  0
    4.2207   -3.8822   29.7305 N   0  0  0  0  0  0  0  0  0  0  0  0
    3.9601   -5.3315   29.4449 C   0  0  0  0  0  0  0  0  0  0  0  0
    4.2429   -5.8900   28.0818 C   0  0  0  0  0  0  0  0  0  0  0  0
    3.9823   -7.3394   27.7963 C   0  0  0  0  0  0  0  0  0  0  0  0
    4.2652   -7.8979   26.4331 C   0  0  0  0  0  0  0  0  0  0  0  0
    4.8086   -7.0071   25.3556 C   0  0  0  0  0  0  0  0  0  0  0  0
    5.0691   -5.5578   25.6411 C   0  0  0  0  0  0  0  0  0  0  0  0
    4.7863   -4.9992   27.0042 C   0  0  0  0  0  0  0  0  0  0  0  0
    8.2422    0.9488   21.8147 C   0  0  0  0  0  0  0  0  0  0  0  0
    4.6813    0.9674   17.9159 C   0  0  0  0  0  0  0  0  0  0  0  0
    5.8577    0.6019   18.7718 C   0  0  0  0  0  0  0  0  0  0  0  0
    6.2684    1.2833   20.0434 N   0  0  0  0  0  0  0  0  0  0  0  0
    7.4944    0.5933   20.5639 C   0  0  0  0  0  0  0  0  0  0  0  0
    7.8414   -0.5145   19.6139 N   0  0  0  0  0  0  0  0  0  0  0  0
    6.8298   -0.5092   18.5063 O   0  0  0  0  0  0  0  0  0  0  0  0
 30 31  1  0  0  0
 31 32  2  0  0  0
 32 33  1  0  0  0
 33 29  1  0  0  0
 29  1  1  0  0  0
  1  2  1  0  0  0
  3  2  1  0  0  0
  3  4  1  0  0  0
  4  5  2  0  0  0
  4  6  1  0  0  0
  6 19  1  0  0  0
 19 20  2  0  0  0
 20 21  1  0  0  0
 21 22  2  0  0  0
 22 23  1  0  0  0
 23 24  2  0  0  0
 24 25  1  0  0  0
 25 26  2  0  0  0
 26 27  1  0  0  0
 27 28  2  0  0  0
  6  7  1  0  0  0
  7  8  1  0  0  0
  8  9  1  0  0  0
  3 10  1  0  0  0
 10 11  2  0  0  0
 11 12  1  0  0  0
 12 13  1  0  0  0
 12 14  2  0  0  0
 14 15  1  0  0  0
 15 16  2  0  0  0
 16 17  1  0  0  0
 17 18  2  0  0  0
 33 34  2  0  0  0
 34 35  1  0  0  0
 35 31  1  0  0  0
 17  1  1  0  0  0
  8  3  1  0  0  0
 16 10  1  0  0  0
 28 19  1  0  0  0
 28 23  1  0  0  0
M  END
> <minimizedAffinity>
-7.78845

> <CNNscore>
0.1681734324

> <CNNaffinity>
6.1882948875

> <CNN_VS>
1.0407067537

> <CNNaffinity_variance>
0.1066858321

$$$$
