


 35 40  0  0  0  0  0  0  0  0999 V2000
   -8.1060   -1.6847  -24.0121 N   0  0  0  0  0  0  0  0  0  0  0  0
   -8.3448   -0.2091  -24.1368 C   0  0  0  0  0  0  0  0  0  0  0  0
   -9.7180    0.3502  -23.9099 C   0  0  0  0  0  0  0  0  0  0  0  0
  -11.0297    1.0508  -23.7130 C   0  0  0  0  0  0  0  0  0  0  0  0
  -12.1860    0.8009  -23.4361 O   0  0  0  0  0  0  0  0  0  0  0  0
  -10.8095    2.5179  -23.9348 N   0  0  0  0  0  0  0  0  0  0  0  0
   -9.3617    2.7240  -24.2687 C   0  0  0  0  0  0  0  0  0  0  0  0
   -8.6872    1.3843  -24.2534 C   0  0  0  0  0  0  0  0  0  0  0  0
   -7.2365    1.1244  -24.5325 C   0  0  0  0  0  0  0  0  0  0  0  0
  -10.8524   -0.5662  -23.5583 C   0  0  0  0  0  0  0  0  0  0  0  0
  -12.2256   -0.0069  -23.3314 C   0  0  0  0  0  0  0  0  0  0  0  0
  -13.3599   -0.9232  -22.9799 C   0  0  0  0  0  0  0  0  0  0  0  0
  -14.7332   -0.3639  -22.7530 F   0  0  0  0  0  0  0  0  0  0  0  0
  -13.1211   -2.3988  -22.8552 C   0  0  0  0  0  0  0  0  0  0  0  0
  -11.7479   -2.9581  -23.0821 C   0  0  0  0  0  0  0  0  0  0  0  0
  -10.6136   -2.0418  -23.4337 C   0  0  0  0  0  0  0  0  0  0  0  0
   -9.2403   -2.6010  -23.6606 C   0  0  0  0  0  0  0  0  0  0  0  0
   -9.0014   -4.0766  -23.5359 O   0  0  0  0  0  0  0  0  0  0  0  0
  -11.8537    3.5904  -23.8393 C   0  0  0  0  0  0  0  0  0  0  0  0
  -12.6404    3.7608  -22.5736 C   0  0  0  0  0  0  0  0  0  0  0  0
  -13.6846    4.8334  -22.4781 N   0  0  0  0  0  0  0  0  0  0  0  0
  -13.9422    5.7356  -23.6484 C   0  0  0  0  0  0  0  0  0  0  0  0
  -13.1554    5.5653  -24.9142 C   0  0  0  0  0  0  0  0  0  0  0  0
  -13.4130    6.4676  -26.0845 C   0  0  0  0  0  0  0  0  0  0  0  0
  -12.6262    6.2972  -27.3502 C   0  0  0  0  0  0  0  0  0  0  0  0
  -11.5820    5.2246  -27.4457 C   0  0  0  0  0  0  0  0  0  0  0  0
  -11.3245    4.3223  -26.2754 C   0  0  0  0  0  0  0  0  0  0  0  0
  -12.1112    4.4927  -25.0096 C   0  0  0  0  0  0  0  0  0  0  0  0
   -6.7327   -2.2440  -24.2390 C   0  0  0  0  0  0  0  0  0  0  0  0
   -5.6886   -6.5028  -21.2974 C   0  0  0  0  0  0  0  0  0  0  0  0
   -5.9392   -5.6097  -22.4761 C   0  0  0  0  0  0  0  0  0  0  0  0
   -6.2390   -4.1410  -22.4217 N   0  0  0  0  0  0  0  0  0  0  0  0
   -6.4191   -3.6522  -23.8283 C   0  0  0  0  0  0  0  0  0  0  0  0
   -6.2305   -4.8188  -24.7522 N   0  0  0  0  0  0  0  0  0  0  0  0
   -5.9339   -6.0286  -23.9165 O   0  0  0  0  0  0  0  0  0  0  0  0
 30 31  1  0  0  0
 31 32  2  0  0  0
 32 33  1  0  0  0
 33 29  1  0  0  0
 29  1  1  0  0  0
  1  2  1  0  0  0
  3  2  1  0  0  0
  3  4  1  0  0  0
  4  5  2  0  0  0
  4  6  1  0  0  0
  6 19  1  0  0  0
 19 20  2  0  0  0
 20 21  1  0  0  0
 21 22  2  0  0  0
 22 23  1  0  0  0
 23 24  2  0  0  0
 24 25  1  0  0  0
 25 26  2  0  0  0
 26 27  1  0  0  0
 27 28  2  0  0  0
  6  7  1  0  0  0
  7  8  1  0  0  0
  8  9  1  0  0  0
  3 10  1  0  0  0
 10 11  2  0  0  0
 11 12  1  0  0  0
 12 13  1  0  0  0
 12 14  2  0  0  0
 14 15  1  0  0  0
 15 16  2  0  0  0
 16 17  1  0  0  0
 17 18  2  0  0  0
 33 34  2  0  0  0
 34 35  1  0  0  0
 35 31  1  0  0  0
 17  1  1  0  0  0
  8  3  1  0  0  0
 16 10  1  0  0  0
 28 19  1  0  0  0
 28 23  1  0  0  0
M  END
> <minimizedAffinity>
-8.11507

> <CNNscore>
0.8251180053

> <CNNaffinity>
6.8862504959

> <CNN_VS>
5.6819691658

> <CNNaffinity_variance>
0.0145384027

$$$$



 35 40  0  0  0  0  0  0  0  0999 V2000
   -7.5621   -1.3302  -22.9147 N   0  0  0  0  0  0  0  0  0  0  0  0
   -7.7911    0.1285  -23.1790 C   0  0  0  0  0  0  0  0  0  0  0  0
   -9.1889    0.6567  -23.3095 C   0  0  0  0  0  0  0  0  0  0  0  0
  -10.5223    1.3262  -23.4633 C   0  0  0  0  0  0  0  0  0  0  0  0
  -11.7069    1.0561  -23.4469 O   0  0  0  0  0  0  0  0  0  0  0  0
  -10.2822    2.7853  -23.7153 N   0  0  0  0  0  0  0  0  0  0  0  0
   -8.8003    3.0175  -23.7171 C   0  0  0  0  0  0  0  0  0  0  0  0
   -8.1246    1.7020  -23.4663 C   0  0  0  0  0  0  0  0  0  0  0  0
   -6.6445    1.4722  -23.3865 C   0  0  0  0  0  0  0  0  0  0  0  0
  -10.3578   -0.2738  -23.1757 C   0  0  0  0  0  0  0  0  0  0  0  0
  -11.7557    0.2544  -23.3062 C   0  0  0  0  0  0  0  0  0  0  0  0
  -12.9245   -0.6761  -23.1725 C   0  0  0  0  0  0  0  0  0  0  0  0
  -14.3224   -0.1479  -23.3030 F   0  0  0  0  0  0  0  0  0  0  0  0
  -12.6955   -2.1348  -22.9082 C   0  0  0  0  0  0  0  0  0  0  0  0
  -11.2977   -2.6630  -22.7776 C   0  0  0  0  0  0  0  0  0  0  0  0
  -10.1289   -1.7325  -22.9114 C   0  0  0  0  0  0  0  0  0  0  0  0
   -8.7310   -2.2607  -22.7809 C   0  0  0  0  0  0  0  0  0  0  0  0
   -8.5020   -3.7193  -22.5166 O   0  0  0  0  0  0  0  0  0  0  0  0
  -11.3385    3.8288  -23.9280 C   0  0  0  0  0  0  0  0  0  0  0  0
  -12.2226    4.2440  -22.7896 C   0  0  0  0  0  0  0  0  0  0  0  0
  -13.2789    5.2875  -23.0023 N   0  0  0  0  0  0  0  0  0  0  0  0
  -13.4511    5.9159  -24.3534 C   0  0  0  0  0  0  0  0  0  0  0  0
  -12.5670    5.5006  -25.4918 C   0  0  0  0  0  0  0  0  0  0  0  0
  -12.7392    6.1290  -26.8430 C   0  0  0  0  0  0  0  0  0  0  0  0
  -11.8550    5.7137  -27.9813 C   0  0  0  0  0  0  0  0  0  0  0  0
  -10.7987    4.6702  -27.7686 C   0  0  0  0  0  0  0  0  0  0  0  0
  -10.6265    4.0419  -26.4175 C   0  0  0  0  0  0  0  0  0  0  0  0
  -11.5107    4.4571  -25.2791 C   0  0  0  0  0  0  0  0  0  0  0  0
   -6.1642   -1.8583  -22.7841 C   0  0  0  0  0  0  0  0  0  0  0  0
   -5.6469   -6.8576  -21.1653 C   0  0  0  0  0  0  0  0  0  0  0  0
   -5.6556   -5.3578  -21.1839 C   0  0  0  0  0  0  0  0  0  0  0  0
   -6.0238   -4.4926  -22.3525 N   0  0  0  0  0  0  0  0  0  0  0  0
   -5.8933   -3.0598  -21.9280 C   0  0  0  0  0  0  0  0  0  0  0  0
   -5.4444   -3.0396  -20.4968 N   0  0  0  0  0  0  0  0  0  0  0  0
   -5.2975   -4.4598  -20.0370 O   0  0  0  0  0  0  0  0  0  0  0  0
 30 31  1  0  0  0
 31 32  2  0  0  0
 32 33  1  0  0  0
 33 29  1  0  0  0
 29  1  1  0  0  0
  1  2  1  0  0  0
  3  2  1  0  0  0
  3  4  1  0  0  0
  4  5  2  0  0  0
  4  6  1  0  0  0
  6 19  1  0  0  0
 19 20  2  0  0  0
 20 21  1  0  0  0
 21 22  2  0  0  0
 22 23  1  0  0  0
 23 24  2  0  0  0
 24 25  1  0  0  0
 25 26  2  0  0  0
 26 27  1  0  0  0
 27 28  2  0  0  0
  6  7  1  0  0  0
  7  8  1  0  0  0
  8  9  1  0  0  0
  3 10  1  0  0  0
 10 11  2  0  0  0
 11 12  1  0  0  0
 12 13  1  0  0  0
 12 14  2  0  0  0
 14 15  1  0  0  0
 15 16  2  0  0  0
 16 17  1  0  0  0
 17 18  2  0  0  0
 33 34  2  0  0  0
 34 35  1  0  0  0
 35 31  1  0  0  0
 17  1  1  0  0  0
  8  3  1  0  0  0
 16 10  1  0  0  0
 28 19  1  0  0  0
 28 23  1  0  0  0
M  END
> <minimizedAffinity>
-8.52288

> <CNNscore>
0.7934123278

> <CNNaffinity>
6.7201590538

> <CNN_VS>
5.3318572044

> <CNNaffinity_variance>
0.0885509923

$$$$



 35 40  0  0  0  0  0  0  0  0999 V2000
   -7.1208   -1.1330  -22.4924 N   0  0  0  0  0  0  0  0  0  0  0  0
   -7.1991    0.1949  -23.1857 C   0  0  0  0  0  0  0  0  0  0  0  0
   -8.5183    0.7020  -23.6881 C   0  0  0  0  0  0  0  0  0  0  0  0
   -9.7601    1.3360  -24.2411 C   0  0  0  0  0  0  0  0  0  0  0  0
  -10.9501    1.1147  -24.3473 O   0  0  0  0  0  0  0  0  0  0  0  0
   -9.3778    2.6549  -24.8449 N   0  0  0  0  0  0  0  0  0  0  0  0
   -7.8997    2.8360  -24.6650 C   0  0  0  0  0  0  0  0  0  0  0  0
   -7.3685    1.6290  -23.9501 C   0  0  0  0  0  0  0  0  0  0  0  0
   -5.9385    1.3909  -23.5648 C   0  0  0  0  0  0  0  0  0  0  0  0
   -9.7593   -0.1188  -23.4973 C   0  0  0  0  0  0  0  0  0  0  0  0
  -11.0785    0.3884  -23.9997 C   0  0  0  0  0  0  0  0  0  0  0  0
  -12.3194   -0.4324  -23.8088 C   0  0  0  0  0  0  0  0  0  0  0  0
  -13.6387    0.0747  -24.3113 F   0  0  0  0  0  0  0  0  0  0  0  0
  -12.2411   -1.7603  -23.1156 C   0  0  0  0  0  0  0  0  0  0  0  0
  -10.9219   -2.2674  -22.6132 C   0  0  0  0  0  0  0  0  0  0  0  0
   -9.6810   -1.4467  -22.8040 C   0  0  0  0  0  0  0  0  0  0  0  0
   -8.3617   -1.9538  -22.3016 C   0  0  0  0  0  0  0  0  0  0  0  0
   -8.2834   -3.2817  -21.6083 O   0  0  0  0  0  0  0  0  0  0  0  0
  -10.3100    3.6227  -25.5114 C   0  0  0  0  0  0  0  0  0  0  0  0
  -10.1611    3.9213  -26.9739 C   0  0  0  0  0  0  0  0  0  0  0  0
  -11.0933    4.8892  -27.6405 N   0  0  0  0  0  0  0  0  0  0  0  0
  -12.1744    5.5584  -26.8446 C   0  0  0  0  0  0  0  0  0  0  0  0
  -12.3233    5.2597  -25.3822 C   0  0  0  0  0  0  0  0  0  0  0  0
  -13.4045    5.9290  -24.5863 C   0  0  0  0  0  0  0  0  0  0  0  0
  -13.5533    5.6303  -23.1239 C   0  0  0  0  0  0  0  0  0  0  0  0
  -12.6211    4.6625  -22.4573 C   0  0  0  0  0  0  0  0  0  0  0  0
  -11.5400    3.9933  -23.2532 C   0  0  0  0  0  0  0  0  0  0  0  0
  -11.3911    4.2919  -24.7156 C   0  0  0  0  0  0  0  0  0  0  0  0
   -5.8015   -1.6402  -21.9900 C   0  0  0  0  0  0  0  0  0  0  0  0
   -5.7074   -6.9179  -21.8590 C   0  0  0  0  0  0  0  0  0  0  0  0
   -5.6345   -5.4790  -21.4417 C   0  0  0  0  0  0  0  0  0  0  0  0
   -5.8431   -4.2908  -22.3330 N   0  0  0  0  0  0  0  0  0  0  0  0
   -5.6778   -3.0531  -21.5018 C   0  0  0  0  0  0  0  0  0  0  0  0
   -5.3670   -3.4764  -20.0967 N   0  0  0  0  0  0  0  0  0  0  0  0
   -5.3403   -4.9758  -20.0596 O   0  0  0  0  0  0  0  0  0  0  0  0
 30 31  1  0  0  0
 31 32  2  0  0  0
 32 33  1  0  0  0
 33 29  1  0  0  0
 29  1  1  0  0  0
  1  2  1  0  0  0
  3  2  1  0  0  0
  3  4  1  0  0  0
  4  5  2  0  0  0
  4  6  1  0  0  0
  6 19  1  0  0  0
 19 20  2  0  0  0
 20 21  1  0  0  0
 21 22  2  0  0  0
 22 23  1  0  0  0
 23 24  2  0  0  0
 24 25  1  0  0  0
 25 26  2  0  0  0
 26 27  1  0  0  0
 27 28  2  0  0  0
  6  7  1  0  0  0
  7  8  1  0  0  0
  8  9  1  0  0  0
  3 10  1  0  0  0
 10 11  2  0  0  0
 11 12  1  0  0  0
 12 13  1  0  0  0
 12 14  2  0  0  0
 14 15  1  0  0  0
 15 16  2  0  0  0
 16 17  1  0  0  0
 17 18  2  0  0  0
 33 34  2  0  0  0
 34 35  1  0  0  0
 35 31  1  0  0  0
 17  1  1  0  0  0
  8  3  1  0  0  0
 16 10  1  0  0  0
 28 19  1  0  0  0
 28 23  1  0  0  0
M  END
> <minimizedAffinity>
-8.01783

> <CNNscore>
0.5282759666

> <CNNaffinity>
6.4282240868

> <CNN_VS>
3.3958764076

> <CNNaffinity_variance>
0.2485882044

$$$$



 35 40  0  0  0  0  0  0  0  0999 V2000
  -11.0490    3.4531  -23.9262 N   0  0  0  0  0  0  0  0  0  0  0  0
   -9.7519    2.6998  -23.9294 C   0  0  0  0  0  0  0  0  0  0  0  0
   -9.7477    1.2129  -23.7324 C   0  0  0  0  0  0  0  0  0  0  0  0
   -9.5871   -0.2672  -23.5488 C   0  0  0  0  0  0  0  0  0  0  0  0
  -10.2616   -1.2607  -23.3633 O   0  0  0  0  0  0  0  0  0  0  0  0
   -8.1236   -0.5874  -23.6227 N   0  0  0  0  0  0  0  0  0  0  0  0
   -7.3795    0.6947  -23.8521 C   0  0  0  0  0  0  0  0  0  0  0  0
   -8.3833    1.8073  -23.9199 C   0  0  0  0  0  0  0  0  0  0  0  0
   -8.0765    3.2595  -24.1370 C   0  0  0  0  0  0  0  0  0  0  0  0
  -11.0406    0.4791  -23.5322 C   0  0  0  0  0  0  0  0  0  0  0  0
  -11.0364   -1.0079  -23.3352 C   0  0  0  0  0  0  0  0  0  0  0  0
  -12.3292   -1.7415  -23.1350 C   0  0  0  0  0  0  0  0  0  0  0  0
  -12.3251   -3.2286  -22.9380 F   0  0  0  0  0  0  0  0  0  0  0  0
  -13.6264   -0.9882  -23.1317 C   0  0  0  0  0  0  0  0  0  0  0  0
  -13.6306    0.4988  -23.3287 C   0  0  0  0  0  0  0  0  0  0  0  0
  -12.3377    1.2324  -23.5289 C   0  0  0  0  0  0  0  0  0  0  0  0
  -12.3419    2.7195  -23.7259 C   0  0  0  0  0  0  0  0  0  0  0  0
  -13.6390    3.4728  -23.7227 O   0  0  0  0  0  0  0  0  0  0  0  0
   -7.5115   -1.9505  -23.4906 C   0  0  0  0  0  0  0  0  0  0  0  0
   -6.8719   -2.3634  -22.1981 C   0  0  0  0  0  0  0  0  0  0  0  0
   -6.2599   -3.7264  -22.0659 N   0  0  0  0  0  0  0  0  0  0  0  0
   -6.2875   -4.6766  -23.2262 C   0  0  0  0  0  0  0  0  0  0  0  0
   -6.9271   -4.2638  -24.5187 C   0  0  0  0  0  0  0  0  0  0  0  0
   -6.9546   -5.2140  -25.6791 C   0  0  0  0  0  0  0  0  0  0  0  0
   -7.5942   -4.8011  -26.9715 C   0  0  0  0  0  0  0  0  0  0  0  0
   -8.2063   -3.4380  -27.1037 C   0  0  0  0  0  0  0  0  0  0  0  0
   -8.1787   -2.4878  -25.9434 C   0  0  0  0  0  0  0  0  0  0  0  0
   -7.5391   -2.9007  -24.6509 C   0  0  0  0  0  0  0  0  0  0  0  0
  -11.0532    4.9402  -24.1231 C   0  0  0  0  0  0  0  0  0  0  0  0
  -13.8399    6.3776  -28.3715 C   0  0  0  0  0  0  0  0  0  0  0  0
  -13.3700    6.2382  -26.9540 C   0  0  0  0  0  0  0  0  0  0  0  0
  -12.1913    5.4343  -26.4908 N   0  0  0  0  0  0  0  0  0  0  0  0
  -12.0890    5.5775  -25.0011 C   0  0  0  0  0  0  0  0  0  0  0  0
  -13.2045    6.4700  -24.5436 N   0  0  0  0  0  0  0  0  0  0  0  0
  -13.9962    6.8783  -25.7506 O   0  0  0  0  0  0  0  0  0  0  0  0
 30 31  1  0  0  0
 31 32  2  0  0  0
 32 33  1  0  0  0
 33 29  1  0  0  0
 29  1  1  0  0  0
  1  2  1  0  0  0
  3  2  1  0  0  0
  3  4  1  0  0  0
  4  5  2  0  0  0
  4  6  1  0  0  0
  6 19  1  0  0  0
 19 20  2  0  0  0
 20 21  1  0  0  0
 21 22  2  0  0  0
 22 23  1  0  0  0
 23 24  2  0  0  0
 24 25  1  0  0  0
 25 26  2  0  0  0
 26 27  1  0  0  0
 27 28  2  0  0  0
  6  7  1  0  0  0
  7  8  1  0  0  0
  8  9  1  0  0  0
  3 10  1  0  0  0
 10 11  2  0  0  0
 11 12  1  0  0  0
 12 13  1  0  0  0
 12 14  2  0  0  0
 14 15  1  0  0  0
 15 16  2  0  0  0
 16 17  1  0  0  0
 17 18  2  0  0  0
 33 34  2  0  0  0
 34 35  1  0  0  0
 35 31  1  0  0  0
 17  1  1  0  0  0
  8  3  1  0  0  0
 16 10  1  0  0  0
 28 19  1  0  0  0
 28 23  1  0  0  0
M  END
> <minimizedAffinity>
-7.79659

> <CNNscore>
0.4737622142

> <CNNaffinity>
6.6177659035

> <CNN_VS>
3.1352474689

> <CNNaffinity_variance>
0.3650183082

$$$$



 35 40  0  0  0  0  0  0  0  0999 V2000
  -12.0707    2.1857  -23.6431 N   0  0  0  0  0  0  0  0  0  0  0  0
  -11.9915    0.6891  -23.5802 C   0  0  0  0  0  0  0  0  0  0  0  0
  -10.6574    0.0056  -23.6350 C   0  0  0  0  0  0  0  0  0  0  0  0
   -9.4016   -0.8135  -23.6787 C   0  0  0  0  0  0  0  0  0  0  0  0
   -8.1981   -0.6684  -23.7628 O   0  0  0  0  0  0  0  0  0  0  0  0
   -9.7882   -2.2600  -23.5880 N   0  0  0  0  0  0  0  0  0  0  0  0
  -11.2830   -2.3348  -23.4882 C   0  0  0  0  0  0  0  0  0  0  0  0
  -11.8202   -0.9346  -23.5173 C   0  0  0  0  0  0  0  0  0  0  0  0
  -13.2663   -0.5434  -23.4419 C   0  0  0  0  0  0  0  0  0  0  0  0
   -9.4024    0.8188  -23.7529 C   0  0  0  0  0  0  0  0  0  0  0  0
   -8.0683    0.1354  -23.8078 C   0  0  0  0  0  0  0  0  0  0  0  0
   -6.8134    0.9485  -23.9256 C   0  0  0  0  0  0  0  0  0  0  0  0
   -5.4792    0.2651  -23.9805 F   0  0  0  0  0  0  0  0  0  0  0  0
   -6.8926    2.4451  -23.9886 C   0  0  0  0  0  0  0  0  0  0  0  0
   -8.2267    3.1285  -23.9337 C   0  0  0  0  0  0  0  0  0  0  0  0
   -9.4816    2.3154  -23.8159 C   0  0  0  0  0  0  0  0  0  0  0  0
  -10.8158    2.9988  -23.7610 C   0  0  0  0  0  0  0  0  0  0  0  0
  -10.8950    4.4954  -23.8240 O   0  0  0  0  0  0  0  0  0  0  0  0
   -8.8455   -3.4267  -23.5956 C   0  0  0  0  0  0  0  0  0  0  0  0
   -7.7013   -3.4728  -22.6267 C   0  0  0  0  0  0  0  0  0  0  0  0
   -6.7586   -4.6395  -22.6344 N   0  0  0  0  0  0  0  0  0  0  0  0
   -6.9600   -5.7601  -23.6110 C   0  0  0  0  0  0  0  0  0  0  0  0
   -8.1042   -5.7139  -24.5799 C   0  0  0  0  0  0  0  0  0  0  0  0
   -8.3057   -6.8346  -25.5565 C   0  0  0  0  0  0  0  0  0  0  0  0
   -9.4499   -6.7883  -26.5254 C   0  0  0  0  0  0  0  0  0  0  0  0
  -10.3926   -5.6216  -26.5177 C   0  0  0  0  0  0  0  0  0  0  0  0
  -10.1911   -4.5011  -25.5411 C   0  0  0  0  0  0  0  0  0  0  0  0
   -9.0469   -4.5472  -24.5722 C   0  0  0  0  0  0  0  0  0  0  0  0
  -13.4049    2.8691  -23.5883 C   0  0  0  0  0  0  0  0  0  0  0  0
  -13.6481    6.9058  -26.9833 C   0  0  0  0  0  0  0  0  0  0  0  0
  -13.6766    6.1040  -25.7160 C   0  0  0  0  0  0  0  0  0  0  0  0
  -13.4415    4.6269  -25.6016 N   0  0  0  0  0  0  0  0  0  0  0  0
  -13.5649    4.2485  -24.1554 C   0  0  0  0  0  0  0  0  0  0  0  0
  -13.8763    5.4917  -23.3759 N   0  0  0  0  0  0  0  0  0  0  0  0
  -13.9454    6.6384  -24.3404 O   0  0  0  0  0  0  0  0  0  0  0  0
 30 31  1  0  0  0
 31 32  2  0  0  0
 32 33  1  0  0  0
 33 29  1  0  0  0
 29  1  1  0  0  0
  1  2  1  0  0  0
  3  2  1  0  0  0
  3  4  1  0  0  0
  4  5  2  0  0  0
  4  6  1  0  0  0
  6 19  1  0  0  0
 19 20  2  0  0  0
 20 21  1  0  0  0
 21 22  2  0  0  0
 22 23  1  0  0  0
 23 24  2  0  0  0
 24 25  1  0  0  0
 25 26  2  0  0  0
 26 27  1  0  0  0
 27 28  2  0  0  0
  6  7  1  0  0  0
  7  8  1  0  0  0
  8  9  1  0  0  0
  3 10  1  0  0  0
 10 11  2  0  0  0
 11 12  1  0  0  0
 12 13  1  0  0  0
 12 14  2  0  0  0
 14 15  1  0  0  0
 15 16  2  0  0  0
 16 17  1  0  0  0
 17 18  2  0  0  0
 33 34  2  0  0  0
 34 35  1  0  0  0
 35 31  1  0  0  0
 17  1  1  0  0  0
  8  3  1  0  0  0
 16 10  1  0  0  0
 28 19  1  0  0  0
 28 23  1  0  0  0
M  END
> <minimizedAffinity>
-9.05487

> <CNNscore>
0.2273610383

> <CNNaffinity>
6.3217592239

> <CNN_VS>
1.4373217821

> <CNNaffinity_variance>
0.1453454942

$$$$



 35 40  0  0  0  0  0  0  0  0999 V2000
   -3.5284    0.8972  -23.2696 N   0  0  0  0  0  0  0  0  0  0  0  0
   -4.8231    0.5993  -23.9660 C   0  0  0  0  0  0  0  0  0  0  0  0
   -5.9936    0.0817  -23.1838 C   0  0  0  0  0  0  0  0  0  0  0  0
   -7.2434   -0.4378  -22.5372 C   0  0  0  0  0  0  0  0  0  0  0  0
   -7.6585   -0.7650  -21.4431 O   0  0  0  0  0  0  0  0  0  0  0  0
   -8.2881   -0.5896  -23.6028 N   0  0  0  0  0  0  0  0  0  0  0  0
   -7.6840   -0.1638  -24.9081 C   0  0  0  0  0  0  0  0  0  0  0  0
   -6.2660    0.2510  -24.6491 C   0  0  0  0  0  0  0  0  0  0  0  0
   -5.2913    0.7480  -25.6754 C   0  0  0  0  0  0  0  0  0  0  0  0
   -5.8695   -0.1381  -21.7051 C   0  0  0  0  0  0  0  0  0  0  0  0
   -7.0400   -0.6557  -20.9229 C   0  0  0  0  0  0  0  0  0  0  0  0
   -6.9158   -0.8755  -19.4444 C   0  0  0  0  0  0  0  0  0  0  0  0
   -8.0864   -1.3932  -18.6621 F   0  0  0  0  0  0  0  0  0  0  0  0
   -5.6211   -0.5777  -18.7480 C   0  0  0  0  0  0  0  0  0  0  0  0
   -4.4505   -0.0600  -19.5302 C   0  0  0  0  0  0  0  0  0  0  0  0
   -4.5747    0.1597  -21.0088 C   0  0  0  0  0  0  0  0  0  0  0  0
   -3.4042    0.6774  -21.7910 C   0  0  0  0  0  0  0  0  0  0  0  0
   -2.1094    0.9753  -21.0947 O   0  0  0  0  0  0  0  0  0  0  0  0
   -9.6907   -1.0808  -23.3989 C   0  0  0  0  0  0  0  0  0  0  0  0
   -9.9446   -2.5346  -23.1307 C   0  0  0  0  0  0  0  0  0  0  0  0
  -11.3472   -3.0258  -22.9268 N   0  0  0  0  0  0  0  0  0  0  0  0
  -12.4957   -2.0632  -22.9912 C   0  0  0  0  0  0  0  0  0  0  0  0
  -12.2418   -0.6094  -23.2594 C   0  0  0  0  0  0  0  0  0  0  0  0
  -13.3904    0.3532  -23.3237 C   0  0  0  0  0  0  0  0  0  0  0  0
  -13.1364    1.8070  -23.5919 C   0  0  0  0  0  0  0  0  0  0  0  0
  -11.7338    2.2983  -23.7958 C   0  0  0  0  0  0  0  0  0  0  0  0
  -10.5853    1.3356  -23.7315 C   0  0  0  0  0  0  0  0  0  0  0  0
  -10.8392   -0.1182  -23.4633 C   0  0  0  0  0  0  0  0  0  0  0  0
   -2.3578    1.4148  -24.0519 C   0  0  0  0  0  0  0  0  0  0  0  0
    1.7291   -1.0419  -26.3195 C   0  0  0  0  0  0  0  0  0  0  0  0
    0.3316   -0.6517  -25.9392 C   0  0  0  0  0  0  0  0  0  0  0  0
   -0.0497    0.4332  -24.9761 N   0  0  0  0  0  0  0  0  0  0  0  0
   -1.5470    0.4776  -24.8969 C   0  0  0  0  0  0  0  0  0  0  0  0
   -2.0911   -0.5800  -25.8111 N   0  0  0  0  0  0  0  0  0  0  0  0
   -0.9300   -1.2778  -26.4553 O   0  0  0  0  0  0  0  0  0  0  0  0
 30 31  1  0  0  0
 31 32  2  0  0  0
 32 33  1  0  0  0
 33 29  1  0  0  0
 29  1  1  0  0  0
  1  2  1  0  0  0
  3  2  1  0  0  0
  3  4  1  0  0  0
  4  5  2  0  0  0
  4  6  1  0  0  0
  6 19  1  0  0  0
 19 20  2  0  0  0
 20 21  1  0  0  0
 21 22  2  0  0  0
 22 23  1  0  0  0
 23 24  2  0  0  0
 24 25  1  0  0  0
 25 26  2  0  0  0
 26 27  1  0  0  0
 27 28  2  0  0  0
  6  7  1  0  0  0
  7  8  1  0  0  0
  8  9  1  0  0  0
  3 10  1  0  0  0
 10 11  2  0  0  0
 11 12  1  0  0  0
 12 13  1  0  0  0
 12 14  2  0  0  0
 14 15  1  0  0  0
 15 16  2  0  0  0
 16 17  1  0  0  0
 17 18  2  0  0  0
 33 34  2  0  0  0
 34 35  1  0  0  0
 35 31  1  0  0  0
 17  1  1  0  0  0
  8  3  1  0  0  0
 16 10  1  0  0  0
 28 19  1  0  0  0
 28 23  1  0  0  0
M  END
> <minimizedAffinity>
-7.97574

> <CNNscore>
0.2213691026

> <CNNaffinity>
5.8666653633

> <CNN_VS>
1.2986984253

> <CNNaffinity_variance>
0.1531382352

$$$$



 35 40  0  0  0  0  0  0  0  0999 V2000
   -9.4012   -2.1775  -23.2601 N   0  0  0  0  0  0  0  0  0  0  0  0
   -8.5407   -0.9765  -23.5191 C   0  0  0  0  0  0  0  0  0  0  0  0
   -9.1700    0.3744  -23.6890 C   0  0  0  0  0  0  0  0  0  0  0  0
   -9.6541    1.7814  -23.8791 C   0  0  0  0  0  0  0  0  0  0  0  0
  -10.6913    2.4138  -23.9022 O   0  0  0  0  0  0  0  0  0  0  0  0
   -8.4576    2.6559  -24.1110 N   0  0  0  0  0  0  0  0  0  0  0  0
   -7.2341    1.7894  -24.0643 C   0  0  0  0  0  0  0  0  0  0  0  0
   -7.6744    0.3794  -23.8035 C   0  0  0  0  0  0  0  0  0  0  0  0
   -6.7767   -0.8158  -23.6790 C   0  0  0  0  0  0  0  0  0  0  0  0
  -10.6599    0.5244  -23.6000 C   0  0  0  0  0  0  0  0  0  0  0  0
  -11.2892    1.8753  -23.7700 C   0  0  0  0  0  0  0  0  0  0  0  0
  -12.7791    2.0252  -23.6809 C   0  0  0  0  0  0  0  0  0  0  0  0
  -13.4085    3.3761  -23.8509 F   0  0  0  0  0  0  0  0  0  0  0  0
  -13.6395    0.8241  -23.4219 C   0  0  0  0  0  0  0  0  0  0  0  0
  -13.0102   -0.5268  -23.2519 C   0  0  0  0  0  0  0  0  0  0  0  0
  -11.5204   -0.6767  -23.3410 C   0  0  0  0  0  0  0  0  0  0  0  0
  -10.8910   -2.0276  -23.1710 C   0  0  0  0  0  0  0  0  0  0  0  0
  -11.7515   -3.2287  -22.9120 O   0  0  0  0  0  0  0  0  0  0  0  0
   -8.4807    4.1369  -24.3480 C   0  0  0  0  0  0  0  0  0  0  0  0
   -8.1001    5.0791  -23.2446 C   0  0  0  0  0  0  0  0  0  0  0  0
   -8.1231    6.5600  -23.4816 N   0  0  0  0  0  0  0  0  0  0  0  0
   -8.5268    7.0988  -24.8220 C   0  0  0  0  0  0  0  0  0  0  0  0
   -8.9074    6.1567  -25.9254 C   0  0  0  0  0  0  0  0  0  0  0  0
   -9.3111    6.6955  -27.2659 C   0  0  0  0  0  0  0  0  0  0  0  0
   -9.6917    5.7533  -28.3692 C   0  0  0  0  0  0  0  0  0  0  0  0
   -9.6686    4.2723  -28.1322 C   0  0  0  0  0  0  0  0  0  0  0  0
   -9.2650    3.7335  -26.7918 C   0  0  0  0  0  0  0  0  0  0  0  0
   -8.8843    4.6757  -25.6884 C   0  0  0  0  0  0  0  0  0  0  0  0
   -8.7718   -3.5285  -23.0901 C   0  0  0  0  0  0  0  0  0  0  0  0
   -9.6289   -5.7561  -27.8000 C   0  0  0  0  0  0  0  0  0  0  0  0
   -9.1317   -5.5140  -26.4057 C   0  0  0  0  0  0  0  0  0  0  0  0
   -9.4400   -4.3177  -25.5550 N   0  0  0  0  0  0  0  0  0  0  0  0
   -8.7377   -4.4901  -24.2408 C   0  0  0  0  0  0  0  0  0  0  0  0
   -7.9953   -5.7930  -24.2793 N   0  0  0  0  0  0  0  0  0  0  0  0
   -8.2388   -6.4258  -25.6174 O   0  0  0  0  0  0  0  0  0  0  0  0
 30 31  1  0  0  0
 31 32  2  0  0  0
 32 33  1  0  0  0
 33 29  1  0  0  0
 29  1  1  0  0  0
  1  2  1  0  0  0
  3  2  1  0  0  0
  3  4  1  0  0  0
  4  5  2  0  0  0
  4  6  1  0  0  0
  6 19  1  0  0  0
 19 20  2  0  0  0
 20 21  1  0  0  0
 21 22  2  0  0  0
 22 23  1  0  0  0
 23 24  2  0  0  0
 24 25  1  0  0  0
 25 26  2  0  0  0
 26 27  1  0  0  0
 27 28  2  0  0  0
  6  7  1  0  0  0
  7  8  1  0  0  0
  8  9  1  0  0  0
  3 10  1  0  0  0
 10 11  2  0  0  0
 11 12  1  0  0  0
 12 13  1  0  0  0
 12 14  2  0  0  0
 14 15  1  0  0  0
 15 16  2  0  0  0
 16 17  1  0  0  0
 17 18  2  0  0  0
 33 34  2  0  0  0
 34 35  1  0  0  0
 35 31  1  0  0  0
 17  1  1  0  0  0
  8  3  1  0  0  0
 16 10  1  0  0  0
 28 19  1  0  0  0
 28 23  1  0  0  0
M  END
> <minimizedAffinity>
-7.46575

> <CNNscore>
0.1863465011

> <CNNaffinity>
5.8418478966

> <CNN_VS>
1.0886079073

> <CNNaffinity_variance>
0.4273706973

$$$$



 35 40  0  0  0  0  0  0  0  0999 V2000
   -6.9413   -0.5317  -22.4236 N   0  0  0  0  0  0  0  0  0  0  0  0
   -7.2876    0.8830  -22.7825 C   0  0  0  0  0  0  0  0  0  0  0  0
   -8.6944    1.2372  -23.1636 C   0  0  0  0  0  0  0  0  0  0  0  0
  -10.0505    1.7389  -23.5629 C   0  0  0  0  0  0  0  0  0  0  0  0
  -11.1821    1.3296  -23.7307 O   0  0  0  0  0  0  0  0  0  0  0  0
   -9.9396    3.2104  -23.8322 N   0  0  0  0  0  0  0  0  0  0  0  0
   -8.5149    3.6181  -23.5994 C   0  0  0  0  0  0  0  0  0  0  0  0
   -7.7454    2.3986  -23.1861 C   0  0  0  0  0  0  0  0  0  0  0  0
   -6.2835    2.3493  -22.8538 C   0  0  0  0  0  0  0  0  0  0  0  0
   -9.7551    0.1768  -23.1858 C   0  0  0  0  0  0  0  0  0  0  0  0
  -11.1620    0.5310  -23.5668 C   0  0  0  0  0  0  0  0  0  0  0  0
  -12.2226   -0.5294  -23.5890 C   0  0  0  0  0  0  0  0  0  0  0  0
  -13.6295   -0.1752  -23.9701 F   0  0  0  0  0  0  0  0  0  0  0  0
  -11.8763   -1.9441  -23.2302 C   0  0  0  0  0  0  0  0  0  0  0  0
  -10.4695   -2.2984  -22.8491 C   0  0  0  0  0  0  0  0  0  0  0  0
   -9.4089   -1.2379  -22.8269 C   0  0  0  0  0  0  0  0  0  0  0  0
   -8.0019   -1.5921  -22.4458 C   0  0  0  0  0  0  0  0  0  0  0  0
   -7.6557   -3.0068  -22.0870 O   0  0  0  0  0  0  0  0  0  0  0  0
  -11.0571    4.1152  -24.2594 C   0  0  0  0  0  0  0  0  0  0  0  0
  -12.0088    4.6650  -23.2387 C   0  0  0  0  0  0  0  0  0  0  0  0
  -13.1263    5.5698  -23.6658 N   0  0  0  0  0  0  0  0  0  0  0  0
  -13.2921    5.9248  -25.1138 C   0  0  0  0  0  0  0  0  0  0  0  0
  -12.3403    5.3750  -26.1345 C   0  0  0  0  0  0  0  0  0  0  0  0
  -12.5060    5.7301  -27.5825 C   0  0  0  0  0  0  0  0  0  0  0  0
  -11.5542    5.1803  -28.6031 C   0  0  0  0  0  0  0  0  0  0  0  0
  -10.4367    4.2755  -28.1759 C   0  0  0  0  0  0  0  0  0  0  0  0
  -10.2710    3.9205  -26.7280 C   0  0  0  0  0  0  0  0  0  0  0  0
  -11.2228    4.4702  -25.7073 C   0  0  0  0  0  0  0  0  0  0  0  0
   -5.5344   -0.8859  -22.0425 C   0  0  0  0  0  0  0  0  0  0  0  0
   -1.7606    2.0842  -19.8478 C   0  0  0  0  0  0  0  0  0  0  0  0
   -3.0454    1.3414  -20.0654 C   0  0  0  0  0  0  0  0  0  0  0  0
   -3.4082    0.5454  -21.2838 N   0  0  0  0  0  0  0  0  0  0  0  0
   -4.7800   -0.0238  -21.0742 C   0  0  0  0  0  0  0  0  0  0  0  0
   -5.2652    0.4204  -19.7260 N   0  0  0  0  0  0  0  0  0  0  0  0
   -4.1930    1.2642  -19.1026 O   0  0  0  0  0  0  0  0  0  0  0  0
 30 31  1  0  0  0
 31 32  2  0  0  0
 32 33  1  0  0  0
 33 29  1  0  0  0
 29  1  1  0  0  0
  1  2  1  0  0  0
  3  2  1  0  0  0
  3  4  1  0  0  0
  4  5  2  0  0  0
  4  6  1  0  0  0
  6 19  1  0  0  0
 19 20  2  0  0  0
 20 21  1  0  0  0
 21 22  2  0  0  0
 22 23  1  0  0  0
 23 24  2  0  0  0
 24 25  1  0  0  0
 25 26  2  0  0  0
 26 27  1  0  0  0
 27 28  2  0  0  0
  6  7  1  0  0  0
  7  8  1  0  0  0
  8  9  1  0  0  0
  3 10  1  0  0  0
 10 11  2  0  0  0
 11 12  1  0  0  0
 12 13  1  0  0  0
 12 14  2  0  0  0
 14 15  1  0  0  0
 15 16  2  0  0  0
 16 17  1  0  0  0
 17 18  2  0  0  0
 33 34  2  0  0  0
 34 35  1  0  0  0
 35 31  1  0  0  0
 17  1  1  0  0  0
  8  3  1  0  0  0
 16 10  1  0  0  0
 28 19  1  0  0  0
 28 23  1  0  0  0
M  END
> <minimizedAffinity>
-8.63035

> <CNNscore>
0.1817320436

> <CNNaffinity>
6.0544357300

> <CNN_VS>
1.1002849340

> <CNNaffinity_variance>
0.1053863764

$$$$



 35 40  0  0  0  0  0  0  0  0999 V2000
   -9.2471    2.6620  -24.6340 N   0  0  0  0  0  0  0  0  0  0  0  0
   -8.3239    1.4846  -24.7409 C   0  0  0  0  0  0  0  0  0  0  0  0
   -8.8164    0.1113  -24.3925 C   0  0  0  0  0  0  0  0  0  0  0  0
   -9.1650   -1.3137  -24.0798 C   0  0  0  0  0  0  0  0  0  0  0  0
  -10.1074   -1.9793  -23.6987 O   0  0  0  0  0  0  0  0  0  0  0  0
   -7.9466   -2.1535  -24.3250 N   0  0  0  0  0  0  0  0  0  0  0  0
   -6.8449   -1.2476  -24.7891 C   0  0  0  0  0  0  0  0  0  0  0  0
   -7.3825    0.1522  -24.8308 C   0  0  0  0  0  0  0  0  0  0  0  0
   -6.6200    1.3777  -25.2392 C   0  0  0  0  0  0  0  0  0  0  0  0
  -10.2321   -0.0846  -23.9370 C   0  0  0  0  0  0  0  0  0  0  0  0
  -10.7246   -1.4579  -23.5885 C   0  0  0  0  0  0  0  0  0  0  0  0
  -12.1403   -1.6538  -23.1330 C   0  0  0  0  0  0  0  0  0  0  0  0
  -12.6328   -3.0271  -22.7845 F   0  0  0  0  0  0  0  0  0  0  0  0
  -13.0635   -0.4764  -23.0261 C   0  0  0  0  0  0  0  0  0  0  0  0
  -12.5710    0.8969  -23.3746 C   0  0  0  0  0  0  0  0  0  0  0  0
  -11.1553    1.0928  -23.8300 C   0  0  0  0  0  0  0  0  0  0  0  0
  -10.6628    2.4661  -24.1785 C   0  0  0  0  0  0  0  0  0  0  0  0
  -11.5860    3.6435  -24.0716 O   0  0  0  0  0  0  0  0  0  0  0  0
   -7.8473   -3.6386  -24.1387 C   0  0  0  0  0  0  0  0  0  0  0  0
   -7.2398   -4.1985  -22.8866 C   0  0  0  0  0  0  0  0  0  0  0  0
   -7.1406   -5.6836  -22.7003 N   0  0  0  0  0  0  0  0  0  0  0  0
   -7.6487   -6.6087  -23.7660 C   0  0  0  0  0  0  0  0  0  0  0  0
   -8.2562   -6.0488  -25.0181 C   0  0  0  0  0  0  0  0  0  0  0  0
   -8.7644   -6.9741  -26.0838 C   0  0  0  0  0  0  0  0  0  0  0  0
   -9.3719   -6.4141  -27.3358 C   0  0  0  0  0  0  0  0  0  0  0  0
   -9.4712   -4.9291  -27.5221 C   0  0  0  0  0  0  0  0  0  0  0  0
   -8.9630   -4.0039  -26.4564 C   0  0  0  0  0  0  0  0  0  0  0  0
   -8.3555   -4.5638  -25.2044 C   0  0  0  0  0  0  0  0  0  0  0  0
   -8.7546    4.0354  -24.9825 C   0  0  0  0  0  0  0  0  0  0  0  0
   -4.5149    6.0388  -22.5551 C   0  0  0  0  0  0  0  0  0  0  0  0
   -5.9358    5.7079  -22.9033 C   0  0  0  0  0  0  0  0  0  0  0  0
   -6.3861    4.8473  -24.0464 N   0  0  0  0  0  0  0  0  0  0  0  0
   -7.8847    4.7870  -24.0191 C   0  0  0  0  0  0  0  0  0  0  0  0
   -8.3606    5.6105  -22.8591 N   0  0  0  0  0  0  0  0  0  0  0  0
   -7.1561    6.1796  -22.1695 O   0  0  0  0  0  0  0  0  0  0  0  0
 30 31  1  0  0  0
 31 32  2  0  0  0
 32 33  1  0  0  0
 33 29  1  0  0  0
 29  1  1  0  0  0
  1  2  1  0  0  0
  3  2  1  0  0  0
  3  4  1  0  0  0
  4  5  2  0  0  0
  4  6  1  0  0  0
  6 19  1  0  0  0
 19 20  2  0  0  0
 20 21  1  0  0  0
 21 22  2  0  0  0
 22 23  1  0  0  0
 23 24  2  0  0  0
 24 25  1  0  0  0
 25 26  2  0  0  0
 26 27  1  0  0  0
 27 28  2  0  0  0
  6  7  1  0  0  0
  7  8  1  0  0  0
  8  9  1  0  0  0
  3 10  1  0  0  0
 10 11  2  0  0  0
 11 12  1  0  0  0
 12 13  1  0  0  0
 12 14  2  0  0  0
 14 15  1  0  0  0
 15 16  2  0  0  0
 16 17  1  0  0  0
 17 18  2  0  0  0
 33 34  2  0  0  0
 34 35  1  0  0  0
 35 31  1  0  0  0
 17  1  1  0  0  0
  8  3  1  0  0  0
 16 10  1  0  0  0
 28 19  1  0  0  0
 28 23  1  0  0  0
M  END
> <minimizedAffinity>
-7.74712

> <CNNscore>
0.1762421578

> <CNNaffinity>
6.2160248756

> <CNN_VS>
1.0955256224

> <CNNaffinity_variance>
0.1525683105

$$$$
