


 37 41  0  0  0  0  0  0  0  0999 V2000
   10.5682    4.0059   22.6577 N   0  0  0  0  0  0  0  0  0  0  0  0
    9.2250    3.4439   23.0183 C   0  0  0  0  0  0  0  0  0  0  0  0
    9.0924    1.9963   23.3880 C   0  0  0  0  0  0  0  0  0  0  0  0
    8.8063    0.5761   23.7769 C   0  0  0  0  0  0  0  0  0  0  0  0
    9.3851   -0.4808   23.9332 O   0  0  0  0  0  0  0  0  0  0  0  0
    7.3366    0.4579   24.0523 N   0  0  0  0  0  0  0  0  0  0  0  0
    6.7142    1.8051   23.8336 C   0  0  0  0  0  0  0  0  0  0  0  0
    7.7994    2.7558   23.4230 C   0  0  0  0  0  0  0  0  0  0  0  0
    7.6225    4.2107   23.1036 N   0  0  0  0  0  0  0  0  0  0  0  0
   10.3030    1.1105   23.3971 C   0  0  0  0  0  0  0  0  0  0  0  0
   10.1703   -0.3371   23.7668 C   0  0  0  0  0  0  0  0  0  0  0  0
   11.3809   -1.2228   23.7758 C   0  0  0  0  0  0  0  0  0  0  0  0
   11.2483   -2.6705   24.1455 Cl  0  0  0  0  0  0  0  0  0  0  0  0
   12.7240   -0.6608   23.4152 C   0  0  0  0  0  0  0  0  0  0  0  0
   12.8567    0.7868   23.0455 C   0  0  0  0  0  0  0  0  0  0  0  0
   11.6462    1.6725   23.0364 C   0  0  0  0  0  0  0  0  0  0  0  0
   11.7788    3.1202   22.6667 C   0  0  0  0  0  0  0  0  0  0  0  0
   13.1219    3.6822   22.3061 O   0  0  0  0  0  0  0  0  0  0  0  0
    8.4279    4.7750   22.8328 H   0  0  0  0  0  0  0  0  0  0  0  0
    6.6969    4.6358   23.1572 H   0  0  0  0  0  0  0  0  0  0  0  0
    7.5023    5.2000   22.8864 H   0  0  0  0  0  0  0  0  0  0  0  0
    6.6157   -0.7886   24.4726 C   0  0  0  0  0  0  0  0  0  0  0  0
    6.4283   -1.9119   23.4963 C   0  0  0  0  0  0  0  0  0  0  0  0
    5.7075   -3.1584   23.9166 N   0  0  0  0  0  0  0  0  0  0  0  0
    5.1741   -3.2816   25.3132 C   0  0  0  0  0  0  0  0  0  0  0  0
    5.3615   -2.1582   26.2894 C   0  0  0  0  0  0  0  0  0  0  0  0
    4.8281   -2.2814   27.6860 C   0  0  0  0  0  0  0  0  0  0  0  0
    5.0156   -1.1581   28.6622 C   0  0  0  0  0  0  0  0  0  0  0  0
    5.7364    0.0884   28.2419 C   0  0  0  0  0  0  0  0  0  0  0  0
    6.2698    0.2116   26.8453 C   0  0  0  0  0  0  0  0  0  0  0  0
    6.0824   -0.9117   25.8691 C   0  0  0  0  0  0  0  0  0  0  0  0
   10.7008    5.4536   22.2879 C   0  0  0  0  0  0  0  0  0  0  0  0
   10.6474    7.8258   25.4691 C   0  0  0  0  0  0  0  0  0  0  0  0
   11.0740    6.7624   24.5010 N   0  0  0  0  0  0  0  0  0  0  0  0
   10.2742    6.5170   23.2560 C   0  0  0  0  0  0  0  0  0  0  0  0
    9.0477    7.3350   22.9791 O   0  0  0  0  0  0  0  0  0  0  0  0
   11.8790    6.2256   24.6827 H   0  0  0  0  0  0  0  0  0  0  0  0
 33 34  1  0  0  0
 34 35  1  0  0  0
 35 36  2  0  0  0
 35 32  1  0  0  0
 32  1  1  0  0  0
  1  2  1  0  0  0
  3  2  1  0  0  0
  3  4  1  0  0  0
  4  5  2  0  0  0
  4  6  1  0  0  0
  6 22  1  0  0  0
 22 23  2  0  0  0
 23 24  1  0  0  0
 24 25  2  0  0  0
 25 26  1  0  0  0
 26 27  2  0  0  0
 27 28  1  0  0  0
 28 29  2  0  0  0
 29 30  1  0  0  0
 30 31  2  0  0  0
  6  7  1  0  0  0
  7  8  1  0  0  0
  8  9  1  0  0  0
  3 10  1  0  0  0
 10 11  2  0  0  0
 11 12  1  0  0  0
 12 13  1  0  0  0
 12 14  2  0  0  0
 14 15  1  0  0  0
 15 16  2  0  0  0
 16 17  1  0  0  0
 17 18  2  0  0  0
 17  1  1  0  0  0
  8  3  1  0  0  0
 16 10  1  0  0  0
 31 22  1  0  0  0
 31 26  1  0  0  0
 34 37  1  0  0  0
  9 19  1  0  0  0
  9 20  1  0  0  0
  9 21  1  0  0  0
M  CHG 1   9   1
M  END
> <minimizedAffinity>
-7.39989

> <CNNscore>
0.4495196640

> <CNNaffinity>
6.4897522926

> <CNN_VS>
2.9172713757

> <CNNaffinity_variance>
0.6705256104

$$$$



 37 41  0  0  0  0  0  0  0  0999 V2000
   10.0783    0.7499   23.2568 N   0  0  0  0  0  0  0  0  0  0  0  0
    8.7064    0.1960   23.5038 C   0  0  0  0  0  0  0  0  0  0  0  0
    8.5264   -0.9841   24.4121 C   0  0  0  0  0  0  0  0  0  0  0  0
    8.1926   -2.1533   25.2904 C   0  0  0  0  0  0  0  0  0  0  0  0
    8.7421   -2.9647   26.0087 O   0  0  0  0  0  0  0  0  0  0  0  0
    6.7073   -2.3579   25.2454 N   0  0  0  0  0  0  0  0  0  0  0  0
    6.1231   -1.3150   24.3392 C   0  0  0  0  0  0  0  0  0  0  0  0
    7.2473   -0.4660   23.8242 C   0  0  0  0  0  0  0  0  0  0  0  0
    7.1156    0.6970   22.8860 N   0  0  0  0  0  0  0  0  0  0  0  0
    9.7183   -1.6103   25.0734 C   0  0  0  0  0  0  0  0  0  0  0  0
    9.5383   -2.7903   25.9817 C   0  0  0  0  0  0  0  0  0  0  0  0
   10.7302   -3.4165   26.6429 C   0  0  0  0  0  0  0  0  0  0  0  0
   10.5502   -4.5966   27.5513 Cl  0  0  0  0  0  0  0  0  0  0  0  0
   12.1021   -2.8626   26.3959 C   0  0  0  0  0  0  0  0  0  0  0  0
   12.2821   -1.6825   25.4876 C   0  0  0  0  0  0  0  0  0  0  0  0
   11.0902   -1.0564   24.8264 C   0  0  0  0  0  0  0  0  0  0  0  0
   11.2702    0.1238   23.9180 C   0  0  0  0  0  0  0  0  0  0  0  0
   12.6421    0.6777   23.6710 O   0  0  0  0  0  0  0  0  0  0  0  0
    7.9455    1.2129   22.5936 H   0  0  0  0  0  0  0  0  0  0  0  0
    6.1961    0.9719   22.5405 H   0  0  0  0  0  0  0  0  0  0  0  0
    7.0260    1.4878   22.2481 H   0  0  0  0  0  0  0  0  0  0  0  0
    5.9408   -3.4189   25.9779 C   0  0  0  0  0  0  0  0  0  0  0  0
    5.5666   -4.6919   25.2782 C   0  0  0  0  0  0  0  0  0  0  0  0
    4.8001   -5.7530   26.0107 N   0  0  0  0  0  0  0  0  0  0  0  0
    4.4079   -5.5411   27.4429 C   0  0  0  0  0  0  0  0  0  0  0  0
    4.7820   -4.2681   28.1426 C   0  0  0  0  0  0  0  0  0  0  0  0
    4.3897   -4.0563   29.5748 C   0  0  0  0  0  0  0  0  0  0  0  0
    4.7639   -2.7833   30.2744 C   0  0  0  0  0  0  0  0  0  0  0  0
    5.5304   -1.7222   29.5419 C   0  0  0  0  0  0  0  0  0  0  0  0
    5.9227   -1.9341   28.1097 C   0  0  0  0  0  0  0  0  0  0  0  0
    5.5485   -3.2070   27.4101 C   0  0  0  0  0  0  0  0  0  0  0  0
   10.2583    1.9300   22.3484 C   0  0  0  0  0  0  0  0  0  0  0  0
   10.3246    5.8346   23.0554 C   0  0  0  0  0  0  0  0  0  0  0  0
   10.7486    4.4686   22.6033 N   0  0  0  0  0  0  0  0  0  0  0  0
    9.8343    3.2960   22.8006 C   0  0  0  0  0  0  0  0  0  0  0  0
    8.4960    3.4892   23.4500 O   0  0  0  0  0  0  0  0  0  0  0  0
   11.6269    4.3418   22.1771 H   0  0  0  0  0  0  0  0  0  0  0  0
 33 34  1  0  0  0
 34 35  1  0  0  0
 35 36  2  0  0  0
 35 32  1  0  0  0
 32  1  1  0  0  0
  1  2  1  0  0  0
  3  2  1  0  0  0
  3  4  1  0  0  0
  4  5  2  0  0  0
  4  6  1  0  0  0
  6 22  1  0  0  0
 22 23  2  0  0  0
 23 24  1  0  0  0
 24 25  2  0  0  0
 25 26  1  0  0  0
 26 27  2  0  0  0
 27 28  1  0  0  0
 28 29  2  0  0  0
 29 30  1  0  0  0
 30 31  2  0  0  0
  6  7  1  0  0  0
  7  8  1  0  0  0
  8  9  1  0  0  0
  3 10  1  0  0  0
 10 11  2  0  0  0
 11 12  1  0  0  0
 12 13  1  0  0  0
 12 14  2  0  0  0
 14 15  1  0  0  0
 15 16  2  0  0  0
 16 17  1  0  0  0
 17 18  2  0  0  0
 17  1  1  0  0  0
  8  3  1  0  0  0
 16 10  1  0  0  0
 31 22  1  0  0  0
 31 26  1  0  0  0
 34 37  1  0  0  0
  9 19  1  0  0  0
  9 20  1  0  0  0
  9 21  1  0  0  0
M  CHG 1   9   1
M  END
> <minimizedAffinity>
-7.67845

> <CNNscore>
0.4452655911

> <CNNaffinity>
6.3657922745

> <CNN_VS>
2.8344683647

> <CNNaffinity_variance>
0.2597098351

$$$$



 37 41  0  0  0  0  0  0  0  0999 V2000
   10.7146    1.5937   22.8520 N   0  0  0  0  0  0  0  0  0  0  0  0
    9.3241    1.3012   23.3324 C   0  0  0  0  0  0  0  0  0  0  0  0
    9.0776    0.1468   24.2578 C   0  0  0  0  0  0  0  0  0  0  0  0
    8.6795   -0.9670   25.1803 C   0  0  0  0  0  0  0  0  0  0  0  0
    9.1767   -1.8912   25.7926 O   0  0  0  0  0  0  0  0  0  0  0  0
    7.1968   -0.8854   25.3928 N   0  0  0  0  0  0  0  0  0  0  0  0
    6.6786    0.2788   24.6015 C   0  0  0  0  0  0  0  0  0  0  0  0
    7.8409    0.9167   23.9001 C   0  0  0  0  0  0  0  0  0  0  0  0
    7.7777    2.1143   22.9991 N   0  0  0  0  0  0  0  0  0  0  0  0
   10.2217   -0.7152   24.7029 C   0  0  0  0  0  0  0  0  0  0  0  0
    9.9752   -1.8697   25.6283 C   0  0  0  0  0  0  0  0  0  0  0  0
   11.1193   -2.7316   26.0733 C   0  0  0  0  0  0  0  0  0  0  0  0
   10.8728   -3.8861   26.9988 Cl  0  0  0  0  0  0  0  0  0  0  0  0
   12.5098   -2.4391   25.5929 C   0  0  0  0  0  0  0  0  0  0  0  0
   12.7563   -1.2847   24.6675 C   0  0  0  0  0  0  0  0  0  0  0  0
   11.6122   -0.4228   24.2225 C   0  0  0  0  0  0  0  0  0  0  0  0
   11.8587    0.7317   23.2970 C   0  0  0  0  0  0  0  0  0  0  0  0
   13.2492    1.0242   22.8165 O   0  0  0  0  0  0  0  0  0  0  0  0
    8.6294    2.4735   22.5677 H   0  0  0  0  0  0  0  0  0  0  0  0
    6.8831    2.5695   22.8179 H   0  0  0  0  0  0  0  0  0  0  0  0
    7.7348    2.9287   22.3864 H   0  0  0  0  0  0  0  0  0  0  0  0
    6.3765   -1.8063   26.2465 C   0  0  0  0  0  0  0  0  0  0  0  0
    6.1648   -3.2302   25.8250 C   0  0  0  0  0  0  0  0  0  0  0  0
    5.3444   -4.1511   26.6787 N   0  0  0  0  0  0  0  0  0  0  0  0
    4.7358   -3.6482   27.9541 C   0  0  0  0  0  0  0  0  0  0  0  0
    4.9475   -2.2242   28.3756 C   0  0  0  0  0  0  0  0  0  0  0  0
    4.3388   -1.7213   29.6511 C   0  0  0  0  0  0  0  0  0  0  0  0
    4.5505   -0.2973   30.0726 C   0  0  0  0  0  0  0  0  0  0  0  0
    5.3708    0.6236   29.2188 C   0  0  0  0  0  0  0  0  0  0  0  0
    5.9795    0.1206   27.9434 C   0  0  0  0  0  0  0  0  0  0  0  0
    5.7678   -1.3033   27.5219 C   0  0  0  0  0  0  0  0  0  0  0  0
   10.9611    2.7482   21.9265 C   0  0  0  0  0  0  0  0  0  0  0  0
   10.6456    6.3994   23.4493 C   0  0  0  0  0  0  0  0  0  0  0  0
   10.2689    5.0587   22.8921 N   0  0  0  0  0  0  0  0  0  0  0  0
   11.3378    4.0889   22.4837 C   0  0  0  0  0  0  0  0  0  0  0  0
   12.7837    4.4599   22.6326 O   0  0  0  0  0  0  0  0  0  0  0  0
    9.3200    4.8152   22.7944 H   0  0  0  0  0  0  0  0  0  0  0  0
 33 34  1  0  0  0
 34 35  1  0  0  0
 35 36  2  0  0  0
 35 32  1  0  0  0
 32  1  1  0  0  0
  1  2  1  0  0  0
  3  2  1  0  0  0
  3  4  1  0  0  0
  4  5  2  0  0  0
  4  6  1  0  0  0
  6 22  1  0  0  0
 22 23  2  0  0  0
 23 24  1  0  0  0
 24 25  2  0  0  0
 25 26  1  0  0  0
 26 27  2  0  0  0
 27 28  1  0  0  0
 28 29  2  0  0  0
 29 30  1  0  0  0
 30 31  2  0  0  0
  6  7  1  0  0  0
  7  8  1  0  0  0
  8  9  1  0  0  0
  3 10  1  0  0  0
 10 11  2  0  0  0
 11 12  1  0  0  0
 12 13  1  0  0  0
 12 14  2  0  0  0
 14 15  1  0  0  0
 15 16  2  0  0  0
 16 17  1  0  0  0
 17 18  2  0  0  0
 17  1  1  0  0  0
  8  3  1  0  0  0
 16 10  1  0  0  0
 31 22  1  0  0  0
 31 26  1  0  0  0
 34 37  1  0  0  0
  9 19  1  0  0  0
  9 20  1  0  0  0
  9 21  1  0  0  0
M  CHG 1   9   1
M  END
> <minimizedAffinity>
-7.87077

> <CNNscore>
0.4124643207

> <CNNaffinity>
6.4446845055

> <CNN_VS>
2.6582024097

> <CNNaffinity_variance>
0.3222528398

$$$$



 37 41  0  0  0  0  0  0  0  0999 V2000
    8.3862    4.4648   23.3511 N   0  0  0  0  0  0  0  0  0  0  0  0
    7.6272    3.2135   23.6801 C   0  0  0  0  0  0  0  0  0  0  0  0
    8.3233    1.8850   23.6528 C   0  0  0  0  0  0  0  0  0  0  0  0
    8.8819    0.4930   23.6670 C   0  0  0  0  0  0  0  0  0  0  0  0
    9.9284   -0.0920   23.4695 O   0  0  0  0  0  0  0  0  0  0  0  0
    7.7763   -0.4463   24.0482 N   0  0  0  0  0  0  0  0  0  0  0  0
    6.5344    0.3652   24.2697 C   0  0  0  0  0  0  0  0  0  0  0  0
    6.8724    1.8060   24.0252 C   0  0  0  0  0  0  0  0  0  0  0  0
    5.9258    2.9645   24.1342 N   0  0  0  0  0  0  0  0  0  0  0  0
    9.7784    1.8079   23.2965 C   0  0  0  0  0  0  0  0  0  0  0  0
   10.4744    0.4795   23.2693 C   0  0  0  0  0  0  0  0  0  0  0  0
   11.9295    0.4024   22.9131 C   0  0  0  0  0  0  0  0  0  0  0  0
   12.6256   -0.9261   22.8858 Cl  0  0  0  0  0  0  0  0  0  0  0  0
   12.6884    1.6537   22.5841 C   0  0  0  0  0  0  0  0  0  0  0  0
   11.9924    2.9821   22.6114 C   0  0  0  0  0  0  0  0  0  0  0  0
   10.5373    3.0592   22.9676 C   0  0  0  0  0  0  0  0  0  0  0  0
    9.8412    4.3877   22.9949 C   0  0  0  0  0  0  0  0  0  0  0  0
   10.6002    5.6390   22.6660 O   0  0  0  0  0  0  0  0  0  0  0  0
    6.2550    3.9115   23.9467 H   0  0  0  0  0  0  0  0  0  0  0  0
    4.9528    2.8052   24.3957 H   0  0  0  0  0  0  0  0  0  0  0  0
    5.2820    3.7522   24.2083 H   0  0  0  0  0  0  0  0  0  0  0  0
    7.8923   -1.9356   24.1842 C   0  0  0  0  0  0  0  0  0  0  0  0
    6.9024   -2.8307   23.4993 C   0  0  0  0  0  0  0  0  0  0  0  0
    7.0185   -4.3200   23.6353 N   0  0  0  0  0  0  0  0  0  0  0  0
    8.1244   -4.9142   24.4561 C   0  0  0  0  0  0  0  0  0  0  0  0
    9.1143   -4.0192   25.1410 C   0  0  0  0  0  0  0  0  0  0  0  0
   10.2203   -4.6135   25.9618 C   0  0  0  0  0  0  0  0  0  0  0  0
   11.2101   -3.7184   26.6466 C   0  0  0  0  0  0  0  0  0  0  0  0
   11.0941   -2.2291   26.5107 C   0  0  0  0  0  0  0  0  0  0  0  0
    9.9882   -1.6348   25.6899 C   0  0  0  0  0  0  0  0  0  0  0  0
    8.9983   -2.5299   25.0050 C   0  0  0  0  0  0  0  0  0  0  0  0
    7.6900    5.7932   23.3784 C   0  0  0  0  0  0  0  0  0  0  0  0
    5.7198    7.8257   20.5969 C   0  0  0  0  0  0  0  0  0  0  0  0
    6.7231    7.4828   21.6579 N   0  0  0  0  0  0  0  0  0  0  0  0
    6.6867    6.1361   22.3174 C   0  0  0  0  0  0  0  0  0  0  0  0
    5.6470    5.1322   21.9158 O   0  0  0  0  0  0  0  0  0  0  0  0
    7.4055    8.1417   21.9215 H   0  0  0  0  0  0  0  0  0  0  0  0
 33 34  1  0  0  0
 34 35  1  0  0  0
 35 36  2  0  0  0
 35 32  1  0  0  0
 32  1  1  0  0  0
  1  2  1  0  0  0
  3  2  1  0  0  0
  3  4  1  0  0  0
  4  5  2  0  0  0
  4  6  1  0  0  0
  6 22  1  0  0  0
 22 23  2  0  0  0
 23 24  1  0  0  0
 24 25  2  0  0  0
 25 26  1  0  0  0
 26 27  2  0  0  0
 27 28  1  0  0  0
 28 29  2  0  0  0
 29 30  1  0  0  0
 30 31  2  0  0  0
  6  7  1  0  0  0
  7  8  1  0  0  0
  8  9  1  0  0  0
  3 10  1  0  0  0
 10 11  2  0  0  0
 11 12  1  0  0  0
 12 13  1  0  0  0
 12 14  2  0  0  0
 14 15  1  0  0  0
 15 16  2  0  0  0
 16 17  1  0  0  0
 17 18  2  0  0  0
 17  1  1  0  0  0
  8  3  1  0  0  0
 16 10  1  0  0  0
 31 22  1  0  0  0
 31 26  1  0  0  0
 34 37  1  0  0  0
  9 19  1  0  0  0
  9 20  1  0  0  0
  9 21  1  0  0  0
M  CHG 1   9   1
M  END
> <minimizedAffinity>
-7.69088

> <CNNscore>
0.3364875913

> <CNNaffinity>
6.2659592628

> <CNN_VS>
2.1084175110

> <CNNaffinity_variance>
0.2543510795

$$$$



 37 41  0  0  0  0  0  0  0  0999 V2000
    5.1142    1.3339   21.1667 N   0  0  0  0  0  0  0  0  0  0  0  0
    5.9831    0.1468   21.4592 C   0  0  0  0  0  0  0  0  0  0  0  0
    7.3631    0.3456   22.0124 C   0  0  0  0  0  0  0  0  0  0  0  0
    8.7572    0.3880   22.5644 C   0  0  0  0  0  0  0  0  0  0  0  0
    9.5904    1.1944   22.9276 O   0  0  0  0  0  0  0  0  0  0  0  0
    9.2463   -1.0238   22.6974 N   0  0  0  0  0  0  0  0  0  0  0  0
    8.1545   -1.9388   22.2275 C   0  0  0  0  0  0  0  0  0  0  0  0
    6.9907   -1.0924   21.8041 C   0  0  0  0  0  0  0  0  0  0  0  0
    5.6838   -1.5958   21.2669 N   0  0  0  0  0  0  0  0  0  0  0  0
    7.8742    1.7316   22.2731 C   0  0  0  0  0  0  0  0  0  0  0  0
    9.2542    1.9303   22.8262 C   0  0  0  0  0  0  0  0  0  0  0  0
    9.7653    3.3163   23.0869 C   0  0  0  0  0  0  0  0  0  0  0  0
   11.1453    3.5151   23.6401 Cl  0  0  0  0  0  0  0  0  0  0  0  0
    8.8963    4.5034   22.7944 C   0  0  0  0  0  0  0  0  0  0  0  0
    7.5163    4.3046   22.2413 C   0  0  0  0  0  0  0  0  0  0  0  0
    7.0053    2.9187   21.9806 C   0  0  0  0  0  0  0  0  0  0  0  0
    5.6252    2.7199   21.4274 C   0  0  0  0  0  0  0  0  0  0  0  0
    4.7562    3.9070   21.1349 O   0  0  0  0  0  0  0  0  0  0  0  0
    4.9514   -0.9356   21.0059 H   0  0  0  0  0  0  0  0  0  0  0  0
    5.5274   -2.5983   21.1625 H   0  0  0  0  0  0  0  0  0  0  0  0
    4.7951   -1.9381   20.9015 H   0  0  0  0  0  0  0  0  0  0  0  0
   10.5911   -1.4464   23.2102 C   0  0  0  0  0  0  0  0  0  0  0  0
   11.8295   -1.1107   22.4333 C   0  0  0  0  0  0  0  0  0  0  0  0
   13.1742   -1.5333   22.9461 N   0  0  0  0  0  0  0  0  0  0  0  0
   13.2806   -2.2916   24.2359 C   0  0  0  0  0  0  0  0  0  0  0  0
   12.0422   -2.6273   25.0129 C   0  0  0  0  0  0  0  0  0  0  0  0
   12.1486   -3.3857   26.3027 C   0  0  0  0  0  0  0  0  0  0  0  0
   10.9102   -3.7213   27.0797 C   0  0  0  0  0  0  0  0  0  0  0  0
    9.5654   -3.2988   26.5668 C   0  0  0  0  0  0  0  0  0  0  0  0
    9.4590   -2.5404   25.2770 C   0  0  0  0  0  0  0  0  0  0  0  0
   10.6974   -2.2047   24.5000 C   0  0  0  0  0  0  0  0  0  0  0  0
    3.7341    1.1351   20.6135 C   0  0  0  0  0  0  0  0  0  0  0  0
    1.3495    4.2287   19.9113 C   0  0  0  0  0  0  0  0  0  0  0  0
    2.3959    3.1723   19.7141 N   0  0  0  0  0  0  0  0  0  0  0  0
    2.6876    2.1915   20.8108 C   0  0  0  0  0  0  0  0  0  0  0  0
    1.9328    2.2670   22.1049 O   0  0  0  0  0  0  0  0  0  0  0  0
    2.8913    3.1227   18.8647 H   0  0  0  0  0  0  0  0  0  0  0  0
 33 34  1  0  0  0
 34 35  1  0  0  0
 35 36  2  0  0  0
 35 32  1  0  0  0
 32  1  1  0  0  0
  1  2  1  0  0  0
  3  2  1  0  0  0
  3  4  1  0  0  0
  4  5  2  0  0  0
  4  6  1  0  0  0
  6 22  1  0  0  0
 22 23  2  0  0  0
 23 24  1  0  0  0
 24 25  2  0  0  0
 25 26  1  0  0  0
 26 27  2  0  0  0
 27 28  1  0  0  0
 28 29  2  0  0  0
 29 30  1  0  0  0
 30 31  2  0  0  0
  6  7  1  0  0  0
  7  8  1  0  0  0
  8  9  1  0  0  0
  3 10  1  0  0  0
 10 11  2  0  0  0
 11 12  1  0  0  0
 12 13  1  0  0  0
 12 14  2  0  0  0
 14 15  1  0  0  0
 15 16  2  0  0  0
 16 17  1  0  0  0
 17 18  2  0  0  0
 17  1  1  0  0  0
  8  3  1  0  0  0
 16 10  1  0  0  0
 31 22  1  0  0  0
 31 26  1  0  0  0
 34 37  1  0  0  0
  9 19  1  0  0  0
  9 20  1  0  0  0
  9 21  1  0  0  0
M  CHG 1   9   1
M  END
> <minimizedAffinity>
-7.47738

> <CNNscore>
0.3025098145

> <CNNaffinity>
6.2670531273

> <CNN_VS>
1.8958450556

> <CNNaffinity_variance>
0.3085339069

$$$$



 37 41  0  0  0  0  0  0  0  0999 V2000
   10.7225    1.5441   22.8096 N   0  0  0  0  0  0  0  0  0  0  0  0
    9.3396    1.2056   23.2819 C   0  0  0  0  0  0  0  0  0  0  0  0
    9.1250    0.0383   24.1991 C   0  0  0  0  0  0  0  0  0  0  0  0
    8.7576   -1.0930   25.1130 C   0  0  0  0  0  0  0  0  0  0  0  0
    9.2807   -2.0052   25.7218 O   0  0  0  0  0  0  0  0  0  0  0  0
    7.2723   -1.0587   25.3191 N   0  0  0  0  0  0  0  0  0  0  0  0
    6.7216    0.0938   24.5326 C   0  0  0  0  0  0  0  0  0  0  0  0
    7.8667    0.7718   23.8404 C   0  0  0  0  0  0  0  0  0  0  0  0
    7.7703    1.9725   22.9465 N   0  0  0  0  0  0  0  0  0  0  0  0
   10.2934   -0.7906   24.6441 C   0  0  0  0  0  0  0  0  0  0  0  0
   10.0788   -1.9579   25.5613 C   0  0  0  0  0  0  0  0  0  0  0  0
   11.2471   -2.7867   26.0063 C   0  0  0  0  0  0  0  0  0  0  0  0
   11.0325   -3.9541   26.9235 Cl  0  0  0  0  0  0  0  0  0  0  0  0
   12.6300   -2.4483   25.5340 C   0  0  0  0  0  0  0  0  0  0  0  0
   12.8446   -1.2810   24.6168 C   0  0  0  0  0  0  0  0  0  0  0  0
   11.6763   -0.4522   24.1718 C   0  0  0  0  0  0  0  0  0  0  0  0
   11.8908    0.7152   23.2545 C   0  0  0  0  0  0  0  0  0  0  0  0
   13.2737    1.0536   22.7823 O   0  0  0  0  0  0  0  0  0  0  0  0
    8.6123    2.3605   22.5212 H   0  0  0  0  0  0  0  0  0  0  0  0
    6.8628    2.4009   22.7640 H   0  0  0  0  0  0  0  0  0  0  0  0
    7.7048    2.7889   22.3387 H   0  0  0  0  0  0  0  0  0  0  0  0
    6.4771   -2.0099   26.1635 C   0  0  0  0  0  0  0  0  0  0  0  0
    6.2037   -1.6867   27.6025 C   0  0  0  0  0  0  0  0  0  0  0  0
    5.4085   -2.6379   28.4468 N   0  0  0  0  0  0  0  0  0  0  0  0
    4.8869   -3.9124   27.8522 C   0  0  0  0  0  0  0  0  0  0  0  0
    5.1604   -4.2356   26.4132 C   0  0  0  0  0  0  0  0  0  0  0  0
    4.6388   -5.5102   25.8185 C   0  0  0  0  0  0  0  0  0  0  0  0
    4.9123   -5.8333   24.3795 C   0  0  0  0  0  0  0  0  0  0  0  0
    5.7074   -4.8821   23.5351 C   0  0  0  0  0  0  0  0  0  0  0  0
    6.2290   -3.6076   24.1298 C   0  0  0  0  0  0  0  0  0  0  0  0
    5.9555   -3.2844   25.5688 C   0  0  0  0  0  0  0  0  0  0  0  0
   10.9371    2.7114   21.8923 C   0  0  0  0  0  0  0  0  0  0  0  0
   10.6943    6.3601   23.4345 C   0  0  0  0  0  0  0  0  0  0  0  0
   10.2910    5.0290   22.8727 N   0  0  0  0  0  0  0  0  0  0  0  0
   11.3405    4.0425   22.4542 C   0  0  0  0  0  0  0  0  0  0  0  0
   12.7934    4.3869   22.5974 O   0  0  0  0  0  0  0  0  0  0  0  0
    9.3374    4.8030   22.7786 H   0  0  0  0  0  0  0  0  0  0  0  0
 33 34  1  0  0  0
 34 35  1  0  0  0
 35 36  2  0  0  0
 35 32  1  0  0  0
 32  1  1  0  0  0
  1  2  1  0  0  0
  3  2  1  0  0  0
  3  4  1  0  0  0
  4  5  2  0  0  0
  4  6  1  0  0  0
  6 22  1  0  0  0
 22 23  2  0  0  0
 23 24  1  0  0  0
 24 25  2  0  0  0
 25 26  1  0  0  0
 26 27  2  0  0  0
 27 28  1  0  0  0
 28 29  2  0  0  0
 29 30  1  0  0  0
 30 31  2  0  0  0
  6  7  1  0  0  0
  7  8  1  0  0  0
  8  9  1  0  0  0
  3 10  1  0  0  0
 10 11  2  0  0  0
 11 12  1  0  0  0
 12 13  1  0  0  0
 12 14  2  0  0  0
 14 15  1  0  0  0
 15 16  2  0  0  0
 16 17  1  0  0  0
 17 18  2  0  0  0
 17  1  1  0  0  0
  8  3  1  0  0  0
 16 10  1  0  0  0
 31 22  1  0  0  0
 31 26  1  0  0  0
 34 37  1  0  0  0
  9 19  1  0  0  0
  9 20  1  0  0  0
  9 21  1  0  0  0
M  CHG 1   9   1
M  END
> <minimizedAffinity>
-8.17101

> <CNNscore>
0.2756033540

> <CNNaffinity>
6.3339037895

> <CNN_VS>
1.7456451654

> <CNNaffinity_variance>
0.2348318100

$$$$



 37 41  0  0  0  0  0  0  0  0999 V2000
    9.5968    0.6849   22.8140 N   0  0  0  0  0  0  0  0  0  0  0  0
    8.4508   -0.2770   22.7075 C   0  0  0  0  0  0  0  0  0  0  0  0
    8.4953   -1.5815   23.4466 C   0  0  0  0  0  0  0  0  0  0  0  0
    8.3985   -2.9162   24.1242 C   0  0  0  0  0  0  0  0  0  0  0  0
    9.0393   -3.6303   24.8697 O   0  0  0  0  0  0  0  0  0  0  0  0
    7.0882   -3.5372   23.7401 N   0  0  0  0  0  0  0  0  0  0  0  0
    6.3752   -2.5863   22.8250 C   0  0  0  0  0  0  0  0  0  0  0  0
    7.2448   -1.3776   22.6437 C   0  0  0  0  0  0  0  0  0  0  0  0
    6.9208   -0.1760   21.8063 N   0  0  0  0  0  0  0  0  0  0  0  0
    9.6858   -1.9241   24.2924 C   0  0  0  0  0  0  0  0  0  0  0  0
    9.7303   -3.2285   25.0316 C   0  0  0  0  0  0  0  0  0  0  0  0
   10.9208   -3.5711   25.8773 C   0  0  0  0  0  0  0  0  0  0  0  0
   10.9653   -4.8756   26.6165 Cl  0  0  0  0  0  0  0  0  0  0  0  0
   12.0668   -2.6092   25.9839 C   0  0  0  0  0  0  0  0  0  0  0  0
   12.0223   -1.3047   25.2448 C   0  0  0  0  0  0  0  0  0  0  0  0
   10.8318   -0.9622   24.3990 C   0  0  0  0  0  0  0  0  0  0  0  0
   10.7873    0.3423   23.6598 C   0  0  0  0  0  0  0  0  0  0  0  0
   11.9333    1.3042   23.7664 O   0  0  0  0  0  0  0  0  0  0  0  0
    7.5822    0.5983   21.7478 H   0  0  0  0  0  0  0  0  0  0  0  0
    6.0390   -0.1331   21.2954 H   0  0  0  0  0  0  0  0  0  0  0  0
    6.7004    0.6411   21.2369 H   0  0  0  0  0  0  0  0  0  0  0  0
    6.5802   -4.8743   24.1917 C   0  0  0  0  0  0  0  0  0  0  0  0
    7.1796   -6.1315   23.6349 C   0  0  0  0  0  0  0  0  0  0  0  0
    6.6716   -7.4687   24.0865 N   0  0  0  0  0  0  0  0  0  0  0  0
    5.5641   -7.5486   25.0950 C   0  0  0  0  0  0  0  0  0  0  0  0
    4.9647   -6.2913   25.6519 C   0  0  0  0  0  0  0  0  0  0  0  0
    3.8572   -6.3713   26.6605 C   0  0  0  0  0  0  0  0  0  0  0  0
    3.2578   -5.1140   27.2173 C   0  0  0  0  0  0  0  0  0  0  0  0
    3.7659   -3.7769   26.7657 C   0  0  0  0  0  0  0  0  0  0  0  0
    4.8733   -3.6970   25.7572 C   0  0  0  0  0  0  0  0  0  0  0  0
    5.4727   -4.9542   25.2003 C   0  0  0  0  0  0  0  0  0  0  0  0
    9.5523    1.9894   22.0748 C   0  0  0  0  0  0  0  0  0  0  0  0
    8.2140    5.4412   23.5046 C   0  0  0  0  0  0  0  0  0  0  0  0
    9.1542    4.3597   23.0613 N   0  0  0  0  0  0  0  0  0  0  0  0
    8.6122    3.0709   22.5181 C   0  0  0  0  0  0  0  0  0  0  0  0
    7.1299    2.8635   22.4181 O   0  0  0  0  0  0  0  0  0  0  0  0
   10.1270    4.4957   23.1269 H   0  0  0  0  0  0  0  0  0  0  0  0
 33 34  1  0  0  0
 34 35  1  0  0  0
 35 36  2  0  0  0
 35 32  1  0  0  0
 32  1  1  0  0  0
  1  2  1  0  0  0
  3  2  1  0  0  0
  3  4  1  0  0  0
  4  5  2  0  0  0
  4  6  1  0  0  0
  6 22  1  0  0  0
 22 23  2  0  0  0
 23 24  1  0  0  0
 24 25  2  0  0  0
 25 26  1  0  0  0
 26 27  2  0  0  0
 27 28  1  0  0  0
 28 29  2  0  0  0
 29 30  1  0  0  0
 30 31  2  0  0  0
  6  7  1  0  0  0
  7  8  1  0  0  0
  8  9  1  0  0  0
  3 10  1  0  0  0
 10 11  2  0  0  0
 11 12  1  0  0  0
 12 13  1  0  0  0
 12 14  2  0  0  0
 14 15  1  0  0  0
 15 16  2  0  0  0
 16 17  1  0  0  0
 17 18  2  0  0  0
 17  1  1  0  0  0
  8  3  1  0  0  0
 16 10  1  0  0  0
 31 22  1  0  0  0
 31 26  1  0  0  0
 34 37  1  0  0  0
  9 19  1  0  0  0
  9 20  1  0  0  0
  9 21  1  0  0  0
M  CHG 1   9   1
M  END
> <minimizedAffinity>
-8.39692

> <CNNscore>
0.2752943635

> <CNNaffinity>
6.3254036903

> <CNN_VS>
1.7413480282

> <CNNaffinity_variance>
0.1617608219

$$$$



 37 41  0  0  0  0  0  0  0  0999 V2000
    7.5005    4.6146   23.7159 N   0  0  0  0  0  0  0  0  0  0  0  0
    8.1769    3.3284   23.3445 C   0  0  0  0  0  0  0  0  0  0  0  0
    7.9627    2.1002   24.1786 C   0  0  0  0  0  0  0  0  0  0  0  0
    7.8442    0.7977   24.9129 C   0  0  0  0  0  0  0  0  0  0  0  0
    7.2904    0.3244   25.8855 O   0  0  0  0  0  0  0  0  0  0  0  0
    8.6847   -0.2169   24.1959 N   0  0  0  0  0  0  0  0  0  0  0  0
    9.3226    0.4586   23.0183 C   0  0  0  0  0  0  0  0  0  0  0  0
    8.8764    1.8907   23.0077 C   0  0  0  0  0  0  0  0  0  0  0  0
    9.2742    2.9306   22.0025 N   0  0  0  0  0  0  0  0  0  0  0  0
    7.0719    2.1583   25.3842 C   0  0  0  0  0  0  0  0  0  0  0  0
    6.8576    0.9302   26.2182 C   0  0  0  0  0  0  0  0  0  0  0  0
    5.9669    0.9883   27.4237 C   0  0  0  0  0  0  0  0  0  0  0  0
    5.7526   -0.2399   28.2578 Cl  0  0  0  0  0  0  0  0  0  0  0  0
    5.2905    2.2746   27.7951 C   0  0  0  0  0  0  0  0  0  0  0  0
    5.5047    3.5027   26.9610 C   0  0  0  0  0  0  0  0  0  0  0  0
    6.3954    3.4446   25.7556 C   0  0  0  0  0  0  0  0  0  0  0  0
    6.6098    4.6728   24.9214 C   0  0  0  0  0  0  0  0  0  0  0  0
    5.9333    5.9590   25.2928 O   0  0  0  0  0  0  0  0  0  0  0  0
    8.9144    3.8817   22.0830 H   0  0  0  0  0  0  0  0  0  0  0  0
    9.9043    2.6867   21.2384 H   0  0  0  0  0  0  0  0  0  0  0  0
    9.5446    3.6378   21.3190 H   0  0  0  0  0  0  0  0  0  0  0  0
    8.8569   -1.6546   24.5876 C   0  0  0  0  0  0  0  0  0  0  0  0
    7.7405   -2.6315   24.3651 C   0  0  0  0  0  0  0  0  0  0  0  0
    7.9128   -4.0691   24.7568 N   0  0  0  0  0  0  0  0  0  0  0  0
    9.2014   -4.5299   25.3710 C   0  0  0  0  0  0  0  0  0  0  0  0
   10.3177   -3.5530   25.5934 C   0  0  0  0  0  0  0  0  0  0  0  0
   11.6064   -4.0138   26.2076 C   0  0  0  0  0  0  0  0  0  0  0  0
   12.7227   -3.0368   26.4300 C   0  0  0  0  0  0  0  0  0  0  0  0
   12.5504   -1.5992   26.0383 C   0  0  0  0  0  0  0  0  0  0  0  0
   11.2618   -1.1384   25.4241 C   0  0  0  0  0  0  0  0  0  0  0  0
   10.1455   -2.1153   25.2017 C   0  0  0  0  0  0  0  0  0  0  0  0
    7.7148    5.8428   22.8818 C   0  0  0  0  0  0  0  0  0  0  0  0
   11.2769    7.5259   22.4037 C   0  0  0  0  0  0  0  0  0  0  0  0
   10.0756    6.6592   22.1677 N   0  0  0  0  0  0  0  0  0  0  0  0
    8.9161    6.7095   23.1178 C   0  0  0  0  0  0  0  0  0  0  0  0
    8.9578    7.6266   24.3042 O   0  0  0  0  0  0  0  0  0  0  0  0
   10.0482    6.0573   21.3891 H   0  0  0  0  0  0  0  0  0  0  0  0
 33 34  1  0  0  0
 34 35  1  0  0  0
 35 36  2  0  0  0
 35 32  1  0  0  0
 32  1  1  0  0  0
  1  2  1  0  0  0
  3  2  1  0  0  0
  3  4  1  0  0  0
  4  5  2  0  0  0
  4  6  1  0  0  0
  6 22  1  0  0  0
 22 23  2  0  0  0
 23 24  1  0  0  0
 24 25  2  0  0  0
 25 26  1  0  0  0
 26 27  2  0  0  0
 27 28  1  0  0  0
 28 29  2  0  0  0
 29 30  1  0  0  0
 30 31  2  0  0  0
  6  7  1  0  0  0
  7  8  1  0  0  0
  8  9  1  0  0  0
  3 10  1  0  0  0
 10 11  2  0  0  0
 11 12  1  0  0  0
 12 13  1  0  0  0
 12 14  2  0  0  0
 14 15  1  0  0  0
 15 16  2  0  0  0
 16 17  1  0  0  0
 17 18  2  0  0  0
 17  1  1  0  0  0
  8  3  1  0  0  0
 16 10  1  0  0  0
 31 22  1  0  0  0
 31 26  1  0  0  0
 34 37  1  0  0  0
  9 19  1  0  0  0
  9 20  1  0  0  0
  9 21  1  0  0  0
M  CHG 1   9   1
M  END
> <minimizedAffinity>
-8.00756

> <CNNscore>
0.2486178577

> <CNNaffinity>
5.8021154404

> <CNN_VS>
1.4425095320

> <CNNaffinity_variance>
0.2614372969

$$$$



 37 41  0  0  0  0  0  0  0  0999 V2000
    3.9093   -5.2310   26.2710 N   0  0  0  0  0  0  0  0  0  0  0  0
    5.1635   -5.3115   25.4521 C   0  0  0  0  0  0  0  0  0  0  0  0
    6.0616   -4.1158   25.3361 C   0  0  0  0  0  0  0  0  0  0  0  0
    7.0519   -3.0084   25.1290 C   0  0  0  0  0  0  0  0  0  0  0  0
    7.2340   -1.8505   25.4491 O   0  0  0  0  0  0  0  0  0  0  0  0
    8.1481   -3.5260   24.2455 N   0  0  0  0  0  0  0  0  0  0  0  0
    7.8351   -4.9533   23.9066 C   0  0  0  0  0  0  0  0  0  0  0  0
    6.5456   -5.3178   24.5806 C   0  0  0  0  0  0  0  0  0  0  0  0
    5.8605   -6.6504   24.5114 N   0  0  0  0  0  0  0  0  0  0  0  0
    5.7055   -2.8393   26.0391 C   0  0  0  0  0  0  0  0  0  0  0  0
    6.6036   -1.6436   25.9232 C   0  0  0  0  0  0  0  0  0  0  0  0
    6.2475   -0.3672   26.6261 C   0  0  0  0  0  0  0  0  0  0  0  0
    7.1456    0.8286   26.5102 Cl  0  0  0  0  0  0  0  0  0  0  0  0
    4.9933   -0.2867   27.4449 C   0  0  0  0  0  0  0  0  0  0  0  0
    4.0952   -1.4825   27.5609 C   0  0  0  0  0  0  0  0  0  0  0  0
    4.4513   -2.7588   26.8580 C   0  0  0  0  0  0  0  0  0  0  0  0
    3.5532   -3.9547   26.9739 C   0  0  0  0  0  0  0  0  0  0  0  0
    2.2990   -3.8742   27.7927 O   0  0  0  0  0  0  0  0  0  0  0  0
    4.9820   -6.7986   25.0081 H   0  0  0  0  0  0  0  0  0  0  0  0
    6.2730   -7.4083   23.9675 H   0  0  0  0  0  0  0  0  0  0  0  0
    5.3946   -7.5565   24.4642 H   0  0  0  0  0  0  0  0  0  0  0  0
    9.3466   -2.7522   23.7822 C   0  0  0  0  0  0  0  0  0  0  0  0
    9.2828   -1.9617   22.5090 C   0  0  0  0  0  0  0  0  0  0  0  0
   10.4814   -1.1879   22.0458 N   0  0  0  0  0  0  0  0  0  0  0  0
   11.7438   -1.2046   22.8557 C   0  0  0  0  0  0  0  0  0  0  0  0
   11.8076   -1.9951   24.1289 C   0  0  0  0  0  0  0  0  0  0  0  0
   13.0701   -2.0118   24.9389 C   0  0  0  0  0  0  0  0  0  0  0  0
   13.1338   -2.8023   26.2121 C   0  0  0  0  0  0  0  0  0  0  0  0
   11.9352   -3.5761   26.6753 C   0  0  0  0  0  0  0  0  0  0  0  0
   10.6728   -3.5594   25.8654 C   0  0  0  0  0  0  0  0  0  0  0  0
   10.6090   -2.7689   24.5922 C   0  0  0  0  0  0  0  0  0  0  0  0
    3.0112   -6.4269   26.3869 C   0  0  0  0  0  0  0  0  0  0  0  0
    1.1414   -6.6156   22.8914 C   0  0  0  0  0  0  0  0  0  0  0  0
    2.2120   -6.3796   23.9153 N   0  0  0  0  0  0  0  0  0  0  0  0
    1.9407   -6.6629   25.3630 C   0  0  0  0  0  0  0  0  0  0  0  0
    0.5988   -7.1822   25.7870 O   0  0  0  0  0  0  0  0  0  0  0  0
    3.0927   -6.0388   23.6370 H   0  0  0  0  0  0  0  0  0  0  0  0
 33 34  1  0  0  0
 34 35  1  0  0  0
 35 36  2  0  0  0
 35 32  1  0  0  0
 32  1  1  0  0  0
  1  2  1  0  0  0
  3  2  1  0  0  0
  3  4  1  0  0  0
  4  5  2  0  0  0
  4  6  1  0  0  0
  6 22  1  0  0  0
 22 23  2  0  0  0
 23 24  1  0  0  0
 24 25  2  0  0  0
 25 26  1  0  0  0
 26 27  2  0  0  0
 27 28  1  0  0  0
 28 29  2  0  0  0
 29 30  1  0  0  0
 30 31  2  0  0  0
  6  7  1  0  0  0
  7  8  1  0  0  0
  8  9  1  0  0  0
  3 10  1  0  0  0
 10 11  2  0  0  0
 11 12  1  0  0  0
 12 13  1  0  0  0
 12 14  2  0  0  0
 14 15  1  0  0  0
 15 16  2  0  0  0
 16 17  1  0  0  0
 17 18  2  0  0  0
 17  1  1  0  0  0
  8  3  1  0  0  0
 16 10  1  0  0  0
 31 22  1  0  0  0
 31 26  1  0  0  0
 34 37  1  0  0  0
  9 19  1  0  0  0
  9 20  1  0  0  0
  9 21  1  0  0  0
M  CHG 1   9   1
M  END
> <minimizedAffinity>
-7.39006

> <CNNscore>
0.2482430190

> <CNNaffinity>
6.0448155403

> <CNN_VS>
1.5005832911

> <CNNaffinity_variance>
0.1059460193

$$$$
