


 35 40  0  0  0  0  0  0  0  0999 V2000
   -5.7757   -5.6206  -22.9241 C   0  0  0  0  0  0  0  0  0  0  0  0
   -6.3325   -4.2896  -22.5134 C   0  0  0  0  0  0  0  0  0  0  0  0
   -5.5222   -3.6538  -21.4230 C   0  0  0  0  0  0  0  0  0  0  0  0
   -6.1542   -2.3364  -21.0839 N   0  0  0  0  0  0  0  0  0  0  0  0
   -7.3553   -2.1582  -21.9647 C   0  0  0  0  0  0  0  0  0  0  0  0
   -8.2832   -0.9796  -21.9623 O   0  0  0  0  0  0  0  0  0  0  0  0
   -7.4655   -3.3653  -22.8482 C   0  0  0  0  0  0  0  0  0  0  0  0
   -8.5416   -2.3448  -23.0726 C   0  0  0  0  0  0  0  0  0  0  0  0
   -9.5990   -2.5853  -24.1090 N   0  0  0  0  0  0  0  0  0  0  0  0
   -9.5803   -3.8464  -24.9208 C   0  0  0  0  0  0  0  0  0  0  0  0
  -10.6378   -4.0870  -25.9571 O   0  0  0  0  0  0  0  0  0  0  0  0
   -8.5042   -4.8671  -24.6964 C   0  0  0  0  0  0  0  0  0  0  0  0
   -8.4855   -6.1282  -25.5083 C   0  0  0  0  0  0  0  0  0  0  0  0
   -7.4094   -7.1487  -25.2838 C   0  0  0  0  0  0  0  0  0  0  0  0
   -6.3520   -6.9082  -24.2475 C   0  0  0  0  0  0  0  0  0  0  0  0
   -5.2758   -7.9288  -24.0231 F   0  0  0  0  0  0  0  0  0  0  0  0
   -6.3706   -5.6471  -23.4357 C   0  0  0  0  0  0  0  0  0  0  0  0
   -7.4467   -4.6265  -23.6601 C   0  0  0  0  0  0  0  0  0  0  0  0
   -5.6703   -1.3675  -20.0461 C   0  0  0  0  0  0  0  0  0  0  0  0
   -6.1450   -1.4878  -18.6284 C   0  0  0  0  0  0  0  0  0  0  0  0
   -5.6610   -0.5189  -17.5906 N   0  0  0  0  0  0  0  0  0  0  0  0
   -4.7025    0.5704  -17.9707 C   0  0  0  0  0  0  0  0  0  0  0  0
   -4.2278    0.6908  -19.3886 C   0  0  0  0  0  0  0  0  0  0  0  0
   -3.2691    1.7802  -19.7686 C   0  0  0  0  0  0  0  0  0  0  0  0
   -2.7945    1.9004  -21.1865 C   0  0  0  0  0  0  0  0  0  0  0  0
   -3.2785    0.9315  -22.2241 C   0  0  0  0  0  0  0  0  0  0  0  0
   -4.2371   -0.1578  -21.8440 C   0  0  0  0  0  0  0  0  0  0  0  0
   -4.7117   -0.2782  -20.4263 C   0  0  0  0  0  0  0  0  0  0  0  0
  -10.6751   -1.5647  -24.3334 C   0  0  0  0  0  0  0  0  0  0  0  0
  -11.9533   -1.6383  -23.5518 C   0  0  0  0  0  0  0  0  0  0  0  0
  -13.1712   -0.7907  -23.7718 N   0  0  0  0  0  0  0  0  0  0  0  0
  -14.2086   -1.2009  -22.7690 N   0  0  0  0  0  0  0  0  0  0  0  0
  -13.6319   -2.3020  -21.9293 N   0  0  0  0  0  0  0  0  0  0  0  0
  -14.3270   -3.0087  -20.8036 C   0  0  0  0  0  0  0  0  0  0  0  0
  -12.2380   -2.5723  -22.4132 N   0  0  0  0  0  0  0  0  0  0  0  0
  2  1  1  0  0  0
  2  3  1  0  0  0
  3  4  1  0  0  0
  4 19  1  0  0  0
 19 20  2  0  0  0
 20 21  1  0  0  0
 21 22  2  0  0  0
 22 23  1  0  0  0
 23 24  2  0  0  0
 24 25  1  0  0  0
 25 26  2  0  0  0
 26 27  1  0  0  0
 27 28  2  0  0  0
  4  5  1  0  0  0
  5  6  2  0  0  0
  5  7  1  0  0  0
  7  8  1  0  0  0
  8  9  1  0  0  0
  9 29  1  0  0  0
 29 30  1  0  0  0
 30 31  1  0  0  0
 31 32  2  0  0  0
 32 33  1  0  0  0
 33 34  1  0  0  0
 33 35  1  0  0  0
  9 10  1  0  0  0
 10 11  2  0  0  0
 10 12  1  0  0  0
 12 13  2  0  0  0
 13 14  1  0  0  0
 14 15  2  0  0  0
 15 16  1  0  0  0
 15 17  1  0  0  0
 17 18  2  0  0  0
  7  2  1  0  0  0
 35 30  2  0  0  0
 18 12  1  0  0  0
 28 19  1  0  0  0
 18  7  1  0  0  0
 28 23  1  0  0  0
M  END
> <minimizedAffinity>
-8.78844

> <CNNscore>
0.6661577821

> <CNNaffinity>
6.8932256699

> <CNN_VS>
4.5919756889

> <CNNaffinity_variance>
0.1816212237

$$$$



 35 40  0  0  0  0  0  0  0  0999 V2000
  -10.6133   -4.3675  -25.5520 C   0  0  0  0  0  0  0  0  0  0  0  0
  -10.0921   -3.2214  -24.7366 C   0  0  0  0  0  0  0  0  0  0  0  0
  -10.9785   -2.0150  -24.8322 C   0  0  0  0  0  0  0  0  0  0  0  0
  -10.3772   -0.9301  -23.9887 N   0  0  0  0  0  0  0  0  0  0  0  0
   -9.1194   -1.4660  -23.3717 C   0  0  0  0  0  0  0  0  0  0  0  0
   -8.1993   -0.7173  -22.4537 O   0  0  0  0  0  0  0  0  0  0  0  0
   -8.9432   -2.8821  -23.8340 C   0  0  0  0  0  0  0  0  0  0  0  0
   -7.8589   -2.4006  -22.9161 C   0  0  0  0  0  0  0  0  0  0  0  0
   -6.7317   -3.3165  -22.5415 N   0  0  0  0  0  0  0  0  0  0  0  0
   -6.6887   -4.7140  -23.0847 C   0  0  0  0  0  0  0  0  0  0  0  0
   -5.5614   -5.6300  -22.7101 O   0  0  0  0  0  0  0  0  0  0  0  0
   -7.7730   -5.1956  -24.0026 C   0  0  0  0  0  0  0  0  0  0  0  0
   -7.7300   -6.5931  -24.5458 C   0  0  0  0  0  0  0  0  0  0  0  0
   -8.8143   -7.0747  -25.4636 C   0  0  0  0  0  0  0  0  0  0  0  0
   -9.9415   -6.1587  -25.8383 C   0  0  0  0  0  0  0  0  0  0  0  0
  -11.0258   -6.6403  -26.7561 F   0  0  0  0  0  0  0  0  0  0  0  0
   -9.9845   -4.7612  -25.2950 C   0  0  0  0  0  0  0  0  0  0  0  0
   -8.9002   -4.2797  -24.3772 C   0  0  0  0  0  0  0  0  0  0  0  0
  -10.9358    0.4486  -23.7959 C   0  0  0  0  0  0  0  0  0  0  0  0
  -12.2162    0.6399  -23.0385 C   0  0  0  0  0  0  0  0  0  0  0  0
  -12.7748    2.0186  -22.8457 N   0  0  0  0  0  0  0  0  0  0  0  0
  -12.0528    3.2060  -23.4104 C   0  0  0  0  0  0  0  0  0  0  0  0
  -10.7723    3.0147  -24.1678 C   0  0  0  0  0  0  0  0  0  0  0  0
  -10.0503    4.2021  -24.7324 C   0  0  0  0  0  0  0  0  0  0  0  0
   -8.7697    4.0107  -25.4898 C   0  0  0  0  0  0  0  0  0  0  0  0
   -8.2113    2.6320  -25.6825 C   0  0  0  0  0  0  0  0  0  0  0  0
   -8.9333    1.4446  -25.1179 C   0  0  0  0  0  0  0  0  0  0  0  0
  -10.2137    1.6359  -24.3606 C   0  0  0  0  0  0  0  0  0  0  0  0
   -5.6474   -2.8350  -21.6236 C   0  0  0  0  0  0  0  0  0  0  0  0
   -5.9924   -1.9877  -20.4349 C   0  0  0  0  0  0  0  0  0  0  0  0
   -7.3316   -1.9143  -19.7634 N   0  0  0  0  0  0  0  0  0  0  0  0
   -7.2257   -0.9464  -18.6225 N   0  0  0  0  0  0  0  0  0  0  0  0
   -5.8209   -0.4215  -18.5888 N   0  0  0  0  0  0  0  0  0  0  0  0
   -5.2743    0.5725  -17.6073 C   0  0  0  0  0  0  0  0  0  0  0  0
   -5.0587   -1.0651  -19.7090 N   0  0  0  0  0  0  0  0  0  0  0  0
  2  1  1  0  0  0
  2  3  1  0  0  0
  3  4  1  0  0  0
  4 19  1  0  0  0
 19 20  2  0  0  0
 20 21  1  0  0  0
 21 22  2  0  0  0
 22 23  1  0  0  0
 23 24  2  0  0  0
 24 25  1  0  0  0
 25 26  2  0  0  0
 26 27  1  0  0  0
 27 28  2  0  0  0
  4  5  1  0  0  0
  5  6  2  0  0  0
  5  7  1  0  0  0
  7  8  1  0  0  0
  8  9  1  0  0  0
  9 29  1  0  0  0
 29 30  1  0  0  0
 30 31  1  0  0  0
 31 32  2  0  0  0
 32 33  1  0  0  0
 33 34  1  0  0  0
 33 35  1  0  0  0
  9 10  1  0  0  0
 10 11  2  0  0  0
 10 12  1  0  0  0
 12 13  2  0  0  0
 13 14  1  0  0  0
 14 15  2  0  0  0
 15 16  1  0  0  0
 15 17  1  0  0  0
 17 18  2  0  0  0
  7  2  1  0  0  0
 35 30  2  0  0  0
 18 12  1  0  0  0
 28 19  1  0  0  0
 18  7  1  0  0  0
 28 23  1  0  0  0
M  END
> <minimizedAffinity>
-8.18017

> <CNNscore>
0.5637113452

> <CNNaffinity>
6.8778314590

> <CNN_VS>
3.8771116734

> <CNNaffinity_variance>
0.1073589548

$$$$



 35 40  0  0  0  0  0  0  0  0999 V2000
   -9.4715   -2.5678  -23.7652 C   0  0  0  0  0  0  0  0  0  0  0  0
   -8.2400   -2.7770  -22.9346 C   0  0  0  0  0  0  0  0  0  0  0  0
   -7.9929   -1.6316  -21.9980 C   0  0  0  0  0  0  0  0  0  0  0  0
   -6.7484   -1.9323  -21.2164 N   0  0  0  0  0  0  0  0  0  0  0  0
   -6.2265   -3.2634  -21.6700 C   0  0  0  0  0  0  0  0  0  0  0  0
   -4.9982   -3.9516  -21.1525 O   0  0  0  0  0  0  0  0  0  0  0  0
   -7.1483   -3.7855  -22.7319 C   0  0  0  0  0  0  0  0  0  0  0  0
   -5.9984   -4.6968  -22.4204 C   0  0  0  0  0  0  0  0  0  0  0  0
   -5.8539   -5.9987  -23.1512 N   0  0  0  0  0  0  0  0  0  0  0  0
   -6.8594   -6.3893  -24.1935 C   0  0  0  0  0  0  0  0  0  0  0  0
   -6.7150   -7.6913  -24.9243 O   0  0  0  0  0  0  0  0  0  0  0  0
   -8.0095   -5.4780  -24.5050 C   0  0  0  0  0  0  0  0  0  0  0  0
   -9.0150   -5.8686  -25.5472 C   0  0  0  0  0  0  0  0  0  0  0  0
  -10.1649   -4.9573  -25.8586 C   0  0  0  0  0  0  0  0  0  0  0  0
  -10.3094   -3.6554  -25.1278 C   0  0  0  0  0  0  0  0  0  0  0  0
  -11.4594   -2.7440  -25.4393 F   0  0  0  0  0  0  0  0  0  0  0  0
   -9.3039   -3.2647  -24.0856 C   0  0  0  0  0  0  0  0  0  0  0  0
   -8.1539   -4.1761  -23.7741 C   0  0  0  0  0  0  0  0  0  0  0  0
   -6.1337   -1.0557  -20.1658 C   0  0  0  0  0  0  0  0  0  0  0  0
   -6.7023   -1.0372  -18.7779 C   0  0  0  0  0  0  0  0  0  0  0  0
   -6.0876   -0.1606  -17.7273 N   0  0  0  0  0  0  0  0  0  0  0  0
   -4.9044    0.6974  -18.0646 C   0  0  0  0  0  0  0  0  0  0  0  0
   -4.3359    0.6789  -19.4526 C   0  0  0  0  0  0  0  0  0  0  0  0
   -3.1526    1.5370  -19.7899 C   0  0  0  0  0  0  0  0  0  0  0  0
   -2.5841    1.5184  -21.1779 C   0  0  0  0  0  0  0  0  0  0  0  0
   -3.1988    0.6418  -22.2285 C   0  0  0  0  0  0  0  0  0  0  0  0
   -4.3820   -0.2162  -21.8911 C   0  0  0  0  0  0  0  0  0  0  0  0
   -4.9505   -0.1977  -20.5032 C   0  0  0  0  0  0  0  0  0  0  0  0
   -4.7039   -6.9100  -22.8397 C   0  0  0  0  0  0  0  0  0  0  0  0
   -3.4094   -6.7653  -23.5836 C   0  0  0  0  0  0  0  0  0  0  0  0
   -3.2589   -6.3670  -25.0219 N   0  0  0  0  0  0  0  0  0  0  0  0
   -1.7946   -6.3489  -25.3470 N   0  0  0  0  0  0  0  0  0  0  0  0
   -1.0402   -6.7360  -24.1096 N   0  0  0  0  0  0  0  0  0  0  0  0
    0.4504   -6.8464  -23.9842 C   0  0  0  0  0  0  0  0  0  0  0  0
   -2.0382   -6.9933  -23.0198 N   0  0  0  0  0  0  0  0  0  0  0  0
  2  1  1  0  0  0
  2  3  1  0  0  0
  3  4  1  0  0  0
  4 19  1  0  0  0
 19 20  2  0  0  0
 20 21  1  0  0  0
 21 22  2  0  0  0
 22 23  1  0  0  0
 23 24  2  0  0  0
 24 25  1  0  0  0
 25 26  2  0  0  0
 26 27  1  0  0  0
 27 28  2  0  0  0
  4  5  1  0  0  0
  5  6  2  0  0  0
  5  7  1  0  0  0
  7  8  1  0  0  0
  8  9  1  0  0  0
  9 29  1  0  0  0
 29 30  1  0  0  0
 30 31  1  0  0  0
 31 32  2  0  0  0
 32 33  1  0  0  0
 33 34  1  0  0  0
 33 35  1  0  0  0
  9 10  1  0  0  0
 10 11  2  0  0  0
 10 12  1  0  0  0
 12 13  2  0  0  0
 13 14  1  0  0  0
 14 15  2  0  0  0
 15 16  1  0  0  0
 15 17  1  0  0  0
 17 18  2  0  0  0
  7  2  1  0  0  0
 35 30  2  0  0  0
 18 12  1  0  0  0
 28 19  1  0  0  0
 18  7  1  0  0  0
 28 23  1  0  0  0
M  END
> <minimizedAffinity>
-8.54942

> <CNNscore>
0.5486382246

> <CNNaffinity>
6.6159949303

> <CNN_VS>
3.6297876835

> <CNNaffinity_variance>
0.0815796033

$$$$



 35 40  0  0  0  0  0  0  0  0999 V2000
   -7.1282    0.9402  -21.3815 C   0  0  0  0  0  0  0  0  0  0  0  0
   -8.3410    0.6529  -22.2162 C   0  0  0  0  0  0  0  0  0  0  0  0
   -9.1493    1.8893  -22.4770 C   0  0  0  0  0  0  0  0  0  0  0  0
  -10.3325    1.5016  -23.3136 N   0  0  0  0  0  0  0  0  0  0  0  0
  -10.2554    0.0257  -23.5698 C   0  0  0  0  0  0  0  0  0  0  0  0
  -11.2368   -0.7836  -24.3646 O   0  0  0  0  0  0  0  0  0  0  0  0
   -9.0246   -0.4989  -22.8916 C   0  0  0  0  0  0  0  0  0  0  0  0
   -9.8165   -1.5476  -23.6148 C   0  0  0  0  0  0  0  0  0  0  0  0
   -9.3510   -2.9735  -23.6124 N   0  0  0  0  0  0  0  0  0  0  0  0
   -8.0936   -3.3508  -22.8867 C   0  0  0  0  0  0  0  0  0  0  0  0
   -7.6282   -4.7767  -22.8843 O   0  0  0  0  0  0  0  0  0  0  0  0
   -7.3016   -2.3021  -22.1635 C   0  0  0  0  0  0  0  0  0  0  0  0
   -6.0443   -2.6794  -21.4378 C   0  0  0  0  0  0  0  0  0  0  0  0
   -5.2524   -1.6307  -20.7146 C   0  0  0  0  0  0  0  0  0  0  0  0
   -5.7178   -0.2048  -20.7170 C   0  0  0  0  0  0  0  0  0  0  0  0
   -4.9258    0.8439  -19.9937 F   0  0  0  0  0  0  0  0  0  0  0  0
   -6.9752    0.1725  -21.4426 C   0  0  0  0  0  0  0  0  0  0  0  0
   -7.7671   -0.8761  -22.1659 C   0  0  0  0  0  0  0  0  0  0  0  0
  -11.4045    2.4274  -23.8072 C   0  0  0  0  0  0  0  0  0  0  0  0
  -12.8218    2.2443  -23.3517 C   0  0  0  0  0  0  0  0  0  0  0  0
  -13.8938    3.1700  -23.8453 N   0  0  0  0  0  0  0  0  0  0  0  0
  -13.5485    4.2789  -24.7946 C   0  0  0  0  0  0  0  0  0  0  0  0
  -12.1311    4.4620  -25.2502 C   0  0  0  0  0  0  0  0  0  0  0  0
  -11.7858    5.5709  -26.1995 C   0  0  0  0  0  0  0  0  0  0  0  0
  -10.3684    5.7540  -26.6551 C   0  0  0  0  0  0  0  0  0  0  0  0
   -9.2965    4.8282  -26.1614 C   0  0  0  0  0  0  0  0  0  0  0  0
   -9.6418    3.7194  -25.2121 C   0  0  0  0  0  0  0  0  0  0  0  0
  -11.0591    3.5363  -24.7565 C   0  0  0  0  0  0  0  0  0  0  0  0
  -10.1430   -4.0222  -24.3357 C   0  0  0  0  0  0  0  0  0  0  0  0
   -9.7652   -4.4168  -25.7327 C   0  0  0  0  0  0  0  0  0  0  0  0
   -9.8646   -3.5482  -26.9515 N   0  0  0  0  0  0  0  0  0  0  0  0
   -9.3826   -4.3437  -28.1282 N   0  0  0  0  0  0  0  0  0  0  0  0
   -8.9853   -5.7041  -27.6366 N   0  0  0  0  0  0  0  0  0  0  0  0
   -8.4462   -6.8229  -28.4779 C   0  0  0  0  0  0  0  0  0  0  0  0
   -9.2218   -5.7492  -26.1561 N   0  0  0  0  0  0  0  0  0  0  0  0
  2  1  1  0  0  0
  2  3  1  0  0  0
  3  4  1  0  0  0
  4 19  1  0  0  0
 19 20  2  0  0  0
 20 21  1  0  0  0
 21 22  2  0  0  0
 22 23  1  0  0  0
 23 24  2  0  0  0
 24 25  1  0  0  0
 25 26  2  0  0  0
 26 27  1  0  0  0
 27 28  2  0  0  0
  4  5  1  0  0  0
  5  6  2  0  0  0
  5  7  1  0  0  0
  7  8  1  0  0  0
  8  9  1  0  0  0
  9 29  1  0  0  0
 29 30  1  0  0  0
 30 31  1  0  0  0
 31 32  2  0  0  0
 32 33  1  0  0  0
 33 34  1  0  0  0
 33 35  1  0  0  0
  9 10  1  0  0  0
 10 11  2  0  0  0
 10 12  1  0  0  0
 12 13  2  0  0  0
 13 14  1  0  0  0
 14 15  2  0  0  0
 15 16  1  0  0  0
 15 17  1  0  0  0
 17 18  2  0  0  0
  7  2  1  0  0  0
 35 30  2  0  0  0
 18 12  1  0  0  0
 28 19  1  0  0  0
 18  7  1  0  0  0
 28 23  1  0  0  0
M  END
> <minimizedAffinity>
-8.73023

> <CNNscore>
0.3805004656

> <CNNaffinity>
6.3522887230

> <CNN_VS>
2.4170489311

> <CNNaffinity_variance>
0.1370557249

$$$$



 35 40  0  0  0  0  0  0  0  0999 V2000
   -6.2938    4.0483  -23.6744 C   0  0  0  0  0  0  0  0  0  0  0  0
   -6.9727    2.8624  -23.0558 C   0  0  0  0  0  0  0  0  0  0  0  0
   -8.3637    2.6723  -23.5842 C   0  0  0  0  0  0  0  0  0  0  0  0
   -8.9554    1.4702  -22.9098 N   0  0  0  0  0  0  0  0  0  0  0  0
   -7.9302    0.9173  -21.9647 C   0  0  0  0  0  0  0  0  0  0  0  0
   -8.1005   -0.2849  -21.0840 O   0  0  0  0  0  0  0  0  0  0  0  0
   -6.7048    1.7777  -22.0549 C   0  0  0  0  0  0  0  0  0  0  0  0
   -6.5822    0.6413  -21.0836 C   0  0  0  0  0  0  0  0  0  0  0  0
   -5.3119    0.4506  -20.3089 N   0  0  0  0  0  0  0  0  0  0  0  0
   -4.1644    1.3963  -20.5055 C   0  0  0  0  0  0  0  0  0  0  0  0
   -2.8941    1.2055  -19.7308 O   0  0  0  0  0  0  0  0  0  0  0  0
   -4.2870    2.5327  -21.4769 C   0  0  0  0  0  0  0  0  0  0  0  0
   -3.1394    3.4784  -21.6735 C   0  0  0  0  0  0  0  0  0  0  0  0
   -3.2620    4.6148  -22.6448 C   0  0  0  0  0  0  0  0  0  0  0  0
   -4.5323    4.8056  -23.4195 C   0  0  0  0  0  0  0  0  0  0  0  0
   -4.6549    5.9421  -24.3908 F   0  0  0  0  0  0  0  0  0  0  0  0
   -5.6799    3.8599  -23.2228 C   0  0  0  0  0  0  0  0  0  0  0  0
   -5.5572    2.7235  -22.2515 C   0  0  0  0  0  0  0  0  0  0  0  0
  -10.3309    0.9179  -23.1402 C   0  0  0  0  0  0  0  0  0  0  0  0
  -11.5322    1.7976  -22.9595 C   0  0  0  0  0  0  0  0  0  0  0  0
  -12.9077    1.2453  -23.1899 N   0  0  0  0  0  0  0  0  0  0  0  0
  -13.0817   -0.1868  -23.6009 C   0  0  0  0  0  0  0  0  0  0  0  0
  -11.8803   -1.0665  -23.7816 C   0  0  0  0  0  0  0  0  0  0  0  0
  -12.0543   -2.4986  -24.1926 C   0  0  0  0  0  0  0  0  0  0  0  0
  -10.8528   -3.3783  -24.3732 C   0  0  0  0  0  0  0  0  0  0  0  0
   -9.4774   -2.8259  -24.1428 C   0  0  0  0  0  0  0  0  0  0  0  0
   -9.3034   -1.3939  -23.7318 C   0  0  0  0  0  0  0  0  0  0  0  0
  -10.5048   -0.5142  -23.5512 C   0  0  0  0  0  0  0  0  0  0  0  0
   -5.1893   -0.6859  -19.3375 C   0  0  0  0  0  0  0  0  0  0  0  0
   -5.3358   -2.1001  -19.8155 C   0  0  0  0  0  0  0  0  0  0  0  0
   -5.1488   -3.3352  -18.9851 N   0  0  0  0  0  0  0  0  0  0  0  0
   -5.3925   -4.5260  -19.8641 N   0  0  0  0  0  0  0  0  0  0  0  0
   -5.7301   -4.0268  -21.2378 N   0  0  0  0  0  0  0  0  0  0  0  0
   -6.0470   -4.8776  -22.4319 C   0  0  0  0  0  0  0  0  0  0  0  0
   -5.6951   -2.5276  -21.2077 N   0  0  0  0  0  0  0  0  0  0  0  0
  2  1  1  0  0  0
  2  3  1  0  0  0
  3  4  1  0  0  0
  4 19  1  0  0  0
 19 20  2  0  0  0
 20 21  1  0  0  0
 21 22  2  0  0  0
 22 23  1  0  0  0
 23 24  2  0  0  0
 24 25  1  0  0  0
 25 26  2  0  0  0
 26 27  1  0  0  0
 27 28  2  0  0  0
  4  5  1  0  0  0
  5  6  2  0  0  0
  5  7  1  0  0  0
  7  8  1  0  0  0
  8  9  1  0  0  0
  9 29  1  0  0  0
 29 30  1  0  0  0
 30 31  1  0  0  0
 31 32  2  0  0  0
 32 33  1  0  0  0
 33 34  1  0  0  0
 33 35  1  0  0  0
  9 10  1  0  0  0
 10 11  2  0  0  0
 10 12  1  0  0  0
 12 13  2  0  0  0
 13 14  1  0  0  0
 14 15  2  0  0  0
 15 16  1  0  0  0
 15 17  1  0  0  0
 17 18  2  0  0  0
  7  2  1  0  0  0
 35 30  2  0  0  0
 18 12  1  0  0  0
 28 19  1  0  0  0
 18  7  1  0  0  0
 28 23  1  0  0  0
M  END
> <minimizedAffinity>
-9.00266

> <CNNscore>
0.3245251477

> <CNNaffinity>
6.2460494041

> <CNN_VS>
2.0270001888

> <CNNaffinity_variance>
0.0326482318

$$$$



 35 40  0  0  0  0  0  0  0  0999 V2000
   -6.0605    4.0350  -23.8375 C   0  0  0  0  0  0  0  0  0  0  0  0
   -6.8518    2.9293  -23.2039 C   0  0  0  0  0  0  0  0  0  0  0  0
   -8.2563    2.8722  -23.7274 C   0  0  0  0  0  0  0  0  0  0  0  0
   -8.9623    1.7424  -23.0381 N   0  0  0  0  0  0  0  0  0  0  0  0
   -7.9940    1.1013  -22.0886 C   0  0  0  0  0  0  0  0  0  0  0  0
   -8.2800   -0.0680  -21.1937 O   0  0  0  0  0  0  0  0  0  0  0  0
   -6.6897    1.8349  -22.1910 C   0  0  0  0  0  0  0  0  0  0  0  0
   -6.6774    0.7030  -21.2068 C   0  0  0  0  0  0  0  0  0  0  0  0
   -5.4300    0.3961  -20.4324 N   0  0  0  0  0  0  0  0  0  0  0  0
   -4.1949    1.2210  -20.6421 C   0  0  0  0  0  0  0  0  0  0  0  0
   -2.9475    0.9140  -19.8676 O   0  0  0  0  0  0  0  0  0  0  0  0
   -4.2072    2.3529  -21.6263 C   0  0  0  0  0  0  0  0  0  0  0  0
   -2.9721    3.1779  -21.8360 C   0  0  0  0  0  0  0  0  0  0  0  0
   -2.9844    4.3097  -22.8202 C   0  0  0  0  0  0  0  0  0  0  0  0
   -4.2318    4.6167  -23.5947 C   0  0  0  0  0  0  0  0  0  0  0  0
   -4.2441    5.7487  -24.5789 F   0  0  0  0  0  0  0  0  0  0  0  0
   -5.4669    3.7918  -23.3849 C   0  0  0  0  0  0  0  0  0  0  0  0
   -5.4546    2.6599  -22.4008 C   0  0  0  0  0  0  0  0  0  0  0  0
  -10.3864    1.3266  -23.2595 C   0  0  0  0  0  0  0  0  0  0  0  0
  -10.7529   -0.1278  -23.2515 C   0  0  0  0  0  0  0  0  0  0  0  0
  -12.1771   -0.5436  -23.4729 N   0  0  0  0  0  0  0  0  0  0  0  0
  -13.2346    0.4952  -23.7021 C   0  0  0  0  0  0  0  0  0  0  0  0
  -12.8680    1.9497  -23.7101 C   0  0  0  0  0  0  0  0  0  0  0  0
  -13.9256    2.9885  -23.9394 C   0  0  0  0  0  0  0  0  0  0  0  0
  -13.5589    4.4430  -23.9473 C   0  0  0  0  0  0  0  0  0  0  0  0
  -12.1349    4.8586  -23.7259 C   0  0  0  0  0  0  0  0  0  0  0  0
  -11.0773    3.8199  -23.4967 C   0  0  0  0  0  0  0  0  0  0  0  0
  -11.4439    2.3655  -23.4887 C   0  0  0  0  0  0  0  0  0  0  0  0
   -5.4177   -0.7359  -19.4481 C   0  0  0  0  0  0  0  0  0  0  0  0
   -5.4887   -2.1531  -19.9342 C   0  0  0  0  0  0  0  0  0  0  0  0
   -5.2231   -3.3807  -19.1142 N   0  0  0  0  0  0  0  0  0  0  0  0
   -5.4080   -4.5780  -19.9988 N   0  0  0  0  0  0  0  0  0  0  0  0
   -5.7879   -4.0903  -21.3655 N   0  0  0  0  0  0  0  0  0  0  0  0
   -6.0687   -4.9502  -22.5620 C   0  0  0  0  0  0  0  0  0  0  0  0
   -5.8378   -2.5917  -21.3255 N   0  0  0  0  0  0  0  0  0  0  0  0
  2  1  1  0  0  0
  2  3  1  0  0  0
  3  4  1  0  0  0
  4 19  1  0  0  0
 19 20  2  0  0  0
 20 21  1  0  0  0
 21 22  2  0  0  0
 22 23  1  0  0  0
 23 24  2  0  0  0
 24 25  1  0  0  0
 25 26  2  0  0  0
 26 27  1  0  0  0
 27 28  2  0  0  0
  4  5  1  0  0  0
  5  6  2  0  0  0
  5  7  1  0  0  0
  7  8  1  0  0  0
  8  9  1  0  0  0
  9 29  1  0  0  0
 29 30  1  0  0  0
 30 31  1  0  0  0
 31 32  2  0  0  0
 32 33  1  0  0  0
 33 34  1  0  0  0
 33 35  1  0  0  0
  9 10  1  0  0  0
 10 11  2  0  0  0
 10 12  1  0  0  0
 12 13  2  0  0  0
 13 14  1  0  0  0
 14 15  2  0  0  0
 15 16  1  0  0  0
 15 17  1  0  0  0
 17 18  2  0  0  0
  7  2  1  0  0  0
 35 30  2  0  0  0
 18 12  1  0  0  0
 28 19  1  0  0  0
 18  7  1  0  0  0
 28 23  1  0  0  0
M  END
> <minimizedAffinity>
-9.39496

> <CNNscore>
0.2939691842

> <CNNaffinity>
6.0408864021

> <CNN_VS>
1.7758344412

> <CNNaffinity_variance>
0.2616043091

$$$$



 35 40  0  0  0  0  0  0  0  0999 V2000
   -5.7581   -5.4282  -23.3940 C   0  0  0  0  0  0  0  0  0  0  0  0
   -6.4164   -4.2343  -22.7685 C   0  0  0  0  0  0  0  0  0  0  0  0
   -5.5314   -3.5715  -21.7549 C   0  0  0  0  0  0  0  0  0  0  0  0
   -6.2731   -2.3967  -21.1895 N   0  0  0  0  0  0  0  0  0  0  0  0
   -7.6166   -2.3335  -21.8537 C   0  0  0  0  0  0  0  0  0  0  0  0
   -8.6841   -1.3136  -21.5885 O   0  0  0  0  0  0  0  0  0  0  0  0
   -7.7051   -3.4692  -22.8295 C   0  0  0  0  0  0  0  0  0  0  0  0
   -8.9333   -2.6094  -22.7810 C   0  0  0  0  0  0  0  0  0  0  0  0
  -10.1049   -2.9246  -23.6630 N   0  0  0  0  0  0  0  0  0  0  0  0
  -10.0483   -4.0996  -24.5937 C   0  0  0  0  0  0  0  0  0  0  0  0
  -11.2199   -4.4148  -25.4757 O   0  0  0  0  0  0  0  0  0  0  0  0
   -8.8201   -4.9594  -24.6423 C   0  0  0  0  0  0  0  0  0  0  0  0
   -8.7635   -6.1344  -25.5730 C   0  0  0  0  0  0  0  0  0  0  0  0
   -7.5354   -6.9942  -25.6216 C   0  0  0  0  0  0  0  0  0  0  0  0
   -6.3638   -6.6789  -24.7395 C   0  0  0  0  0  0  0  0  0  0  0  0
   -5.1356   -7.5388  -24.7881 F   0  0  0  0  0  0  0  0  0  0  0  0
   -6.4204   -5.5040  -23.8088 C   0  0  0  0  0  0  0  0  0  0  0  0
   -7.6485   -4.6442  -23.7602 C   0  0  0  0  0  0  0  0  0  0  0  0
   -5.7613   -1.4511  -20.1435 C   0  0  0  0  0  0  0  0  0  0  0  0
   -6.1932   -1.6071  -18.7156 C   0  0  0  0  0  0  0  0  0  0  0  0
   -5.6814   -0.6615  -17.6697 N   0  0  0  0  0  0  0  0  0  0  0  0
   -4.7377    0.4400  -18.0518 C   0  0  0  0  0  0  0  0  0  0  0  0
   -4.3058    0.5960  -19.4798 C   0  0  0  0  0  0  0  0  0  0  0  0
   -3.3621    1.6976  -19.8618 C   0  0  0  0  0  0  0  0  0  0  0  0
   -2.9302    1.8535  -21.2899 C   0  0  0  0  0  0  0  0  0  0  0  0
   -3.4420    0.9079  -22.3357 C   0  0  0  0  0  0  0  0  0  0  0  0
   -4.3857   -0.1936  -21.9536 C   0  0  0  0  0  0  0  0  0  0  0  0
   -4.8176   -0.3496  -20.5257 C   0  0  0  0  0  0  0  0  0  0  0  0
  -11.3331   -2.0648  -23.6144 C   0  0  0  0  0  0  0  0  0  0  0  0
  -11.2113   -0.5752  -23.7421 C   0  0  0  0  0  0  0  0  0  0  0  0
  -10.0890    0.1637  -24.4087 N   0  0  0  0  0  0  0  0  0  0  0  0
  -10.3745    1.6325  -24.3042 N   0  0  0  0  0  0  0  0  0  0  0  0
  -11.6734    1.8014  -23.5731 N   0  0  0  0  0  0  0  0  0  0  0  0
  -12.3383    3.1058  -23.2466 C   0  0  0  0  0  0  0  0  0  0  0  0
  -12.1905    0.4369  -23.2257 N   0  0  0  0  0  0  0  0  0  0  0  0
  2  1  1  0  0  0
  2  3  1  0  0  0
  3  4  1  0  0  0
  4 19  1  0  0  0
 19 20  2  0  0  0
 20 21  1  0  0  0
 21 22  2  0  0  0
 22 23  1  0  0  0
 23 24  2  0  0  0
 24 25  1  0  0  0
 25 26  2  0  0  0
 26 27  1  0  0  0
 27 28  2  0  0  0
  4  5  1  0  0  0
  5  6  2  0  0  0
  5  7  1  0  0  0
  7  8  1  0  0  0
  8  9  1  0  0  0
  9 29  1  0  0  0
 29 30  1  0  0  0
 30 31  1  0  0  0
 31 32  2  0  0  0
 32 33  1  0  0  0
 33 34  1  0  0  0
 33 35  1  0  0  0
  9 10  1  0  0  0
 10 11  2  0  0  0
 10 12  1  0  0  0
 12 13  2  0  0  0
 13 14  1  0  0  0
 14 15  2  0  0  0
 15 16  1  0  0  0
 15 17  1  0  0  0
 17 18  2  0  0  0
  7  2  1  0  0  0
 35 30  2  0  0  0
 18 12  1  0  0  0
 28 19  1  0  0  0
 18  7  1  0  0  0
 28 23  1  0  0  0
M  END
> <minimizedAffinity>
-9.11079

> <CNNscore>
0.2854594588

> <CNNaffinity>
6.2977218628

> <CNN_VS>
1.7977442741

> <CNNaffinity_variance>
0.1539384425

$$$$



 35 40  0  0  0  0  0  0  0  0999 V2000
   -7.2948   -0.0379  -21.1013 C   0  0  0  0  0  0  0  0  0  0  0  0
   -8.4712   -0.1956  -22.0185 C   0  0  0  0  0  0  0  0  0  0  0  0
   -9.2914    1.0576  -22.1008 C   0  0  0  0  0  0  0  0  0  0  0  0
  -10.4364    0.8016  -23.0354 N   0  0  0  0  0  0  0  0  0  0  0  0
  -10.3238   -0.6098  -23.5307 C   0  0  0  0  0  0  0  0  0  0  0  0
  -11.2612   -1.2861  -24.4867 O   0  0  0  0  0  0  0  0  0  0  0  0
   -9.1092   -1.2261  -22.9023 C   0  0  0  0  0  0  0  0  0  0  0  0
   -9.8556   -2.1482  -23.8202 C   0  0  0  0  0  0  0  0  0  0  0  0
   -9.3651   -3.5490  -24.0374 N   0  0  0  0  0  0  0  0  0  0  0  0
   -8.1284   -4.0277  -23.3366 C   0  0  0  0  0  0  0  0  0  0  0  0
   -7.6379   -5.4286  -23.5537 O   0  0  0  0  0  0  0  0  0  0  0  0
   -7.3819   -3.1056  -22.4186 C   0  0  0  0  0  0  0  0  0  0  0  0
   -6.1452   -3.5844  -21.7178 C   0  0  0  0  0  0  0  0  0  0  0  0
   -5.3989   -2.6623  -20.7998 C   0  0  0  0  0  0  0  0  0  0  0  0
   -5.8893   -1.2615  -20.5826 C   0  0  0  0  0  0  0  0  0  0  0  0
   -5.1429   -0.3393  -19.6646 F   0  0  0  0  0  0  0  0  0  0  0  0
   -7.1261   -0.7827  -21.2834 C   0  0  0  0  0  0  0  0  0  0  0  0
   -7.8724   -1.7048  -22.2014 C   0  0  0  0  0  0  0  0  0  0  0  0
  -11.5062    1.7844  -23.4091 C   0  0  0  0  0  0  0  0  0  0  0  0
  -12.8893    1.6369  -22.8479 C   0  0  0  0  0  0  0  0  0  0  0  0
  -13.9591    2.6197  -23.2216 N   0  0  0  0  0  0  0  0  0  0  0  0
  -13.6457    3.7500  -24.1565 C   0  0  0  0  0  0  0  0  0  0  0  0
  -12.2624    3.8976  -24.7177 C   0  0  0  0  0  0  0  0  0  0  0  0
  -11.9490    5.0280  -25.6527 C   0  0  0  0  0  0  0  0  0  0  0  0
  -10.5657    5.1754  -26.2138 C   0  0  0  0  0  0  0  0  0  0  0  0
   -9.4961    4.1926  -25.8401 C   0  0  0  0  0  0  0  0  0  0  0  0
   -9.8095    3.0623  -24.9052 C   0  0  0  0  0  0  0  0  0  0  0  0
  -11.1927    2.9148  -24.3440 C   0  0  0  0  0  0  0  0  0  0  0  0
  -10.1115   -4.4711  -24.9554 C   0  0  0  0  0  0  0  0  0  0  0  0
   -9.3589   -5.4271  -25.8326 C   0  0  0  0  0  0  0  0  0  0  0  0
   -9.5210   -6.9181  -25.8542 N   0  0  0  0  0  0  0  0  0  0  0  0
   -8.5743   -7.4725  -26.8772 N   0  0  0  0  0  0  0  0  0  0  0  0
   -7.8270   -6.3241  -27.4877 N   0  0  0  0  0  0  0  0  0  0  0  0
   -6.7789   -6.4225  -28.5563 C   0  0  0  0  0  0  0  0  0  0  0  0
   -8.3119   -5.0600  -26.8421 N   0  0  0  0  0  0  0  0  0  0  0  0
  2  1  1  0  0  0
  2  3  1  0  0  0
  3  4  1  0  0  0
  4 19  1  0  0  0
 19 20  2  0  0  0
 20 21  1  0  0  0
 21 22  2  0  0  0
 22 23  1  0  0  0
 23 24  2  0  0  0
 24 25  1  0  0  0
 25 26  2  0  0  0
 26 27  1  0  0  0
 27 28  2  0  0  0
  4  5  1  0  0  0
  5  6  2  0  0  0
  5  7  1  0  0  0
  7  8  1  0  0  0
  8  9  1  0  0  0
  9 29  1  0  0  0
 29 30  1  0  0  0
 30 31  1  0  0  0
 31 32  2  0  0  0
 32 33  1  0  0  0
 33 34  1  0  0  0
 33 35  1  0  0  0
  9 10  1  0  0  0
 10 11  2  0  0  0
 10 12  1  0  0  0
 12 13  2  0  0  0
 13 14  1  0  0  0
 14 15  2  0  0  0
 15 16  1  0  0  0
 15 17  1  0  0  0
 17 18  2  0  0  0
  7  2  1  0  0  0
 35 30  2  0  0  0
 18 12  1  0  0  0
 28 19  1  0  0  0
 18  7  1  0  0  0
 28 23  1  0  0  0
M  END
> <minimizedAffinity>
-9.08562

> <CNNscore>
0.2466481477

> <CNNaffinity>
6.0463762283

> <CNN_VS>
1.4913275242

> <CNNaffinity_variance>
0.4847431183

$$$$



 35 40  0  0  0  0  0  0  0  0999 V2000
   -5.5204    2.0371  -21.7977 C   0  0  0  0  0  0  0  0  0  0  0  0
   -6.5174    1.4844  -22.7728 C   0  0  0  0  0  0  0  0  0  0  0  0
   -7.9178    1.9123  -22.4477 C   0  0  0  0  0  0  0  0  0  0  0  0
   -8.8351    1.3133  -23.4723 N   0  0  0  0  0  0  0  0  0  0  0  0
   -8.0016    0.5152  -24.4305 C   0  0  0  0  0  0  0  0  0  0  0  0
   -8.5111   -0.2537  -25.6134 O   0  0  0  0  0  0  0  0  0  0  0  0
   -6.5691    0.6210  -23.9982 C   0  0  0  0  0  0  0  0  0  0  0  0
   -6.7762   -0.2200  -25.2229 C   0  0  0  0  0  0  0  0  0  0  0  0
   -5.6018   -0.8645  -25.8976 N   0  0  0  0  0  0  0  0  0  0  0  0
   -4.2201   -0.6680  -25.3476 C   0  0  0  0  0  0  0  0  0  0  0  0
   -3.0457   -1.3125  -26.0223 O   0  0  0  0  0  0  0  0  0  0  0  0
   -4.0130    0.1731  -24.1229 C   0  0  0  0  0  0  0  0  0  0  0  0
   -2.6313    0.3696  -23.5730 C   0  0  0  0  0  0  0  0  0  0  0  0
   -2.4242    1.2106  -22.3484 C   0  0  0  0  0  0  0  0  0  0  0  0
   -3.5987    1.8551  -21.6737 C   0  0  0  0  0  0  0  0  0  0  0  0
   -3.3915    2.6961  -20.4490 F   0  0  0  0  0  0  0  0  0  0  0  0
   -4.9803    1.6586  -22.2236 C   0  0  0  0  0  0  0  0  0  0  0  0
   -5.1874    0.8176  -23.4482 C   0  0  0  0  0  0  0  0  0  0  0  0
  -10.3245    1.4825  -23.5287 C   0  0  0  0  0  0  0  0  0  0  0  0
  -10.9153    2.8238  -23.8478 C   0  0  0  0  0  0  0  0  0  0  0  0
  -12.4046    2.9930  -23.9043 N   0  0  0  0  0  0  0  0  0  0  0  0
  -13.3031    1.8210  -23.6415 C   0  0  0  0  0  0  0  0  0  0  0  0
  -12.7123    0.4797  -23.3223 C   0  0  0  0  0  0  0  0  0  0  0  0
  -13.6108   -0.6923  -23.0595 C   0  0  0  0  0  0  0  0  0  0  0  0
  -13.0199   -2.0336  -22.7403 C   0  0  0  0  0  0  0  0  0  0  0  0
  -11.5306   -2.2028  -22.6839 C   0  0  0  0  0  0  0  0  0  0  0  0
  -10.6321   -1.0308  -22.9467 C   0  0  0  0  0  0  0  0  0  0  0  0
  -11.2229    0.3105  -23.2659 C   0  0  0  0  0  0  0  0  0  0  0  0
   -5.8090   -1.7055  -27.1223 C   0  0  0  0  0  0  0  0  0  0  0  0
   -7.1090   -2.4252  -27.3267 C   0  0  0  0  0  0  0  0  0  0  0  0
   -8.2019   -2.0202  -28.2710 N   0  0  0  0  0  0  0  0  0  0  0  0
   -9.3128   -3.0209  -28.1507 N   0  0  0  0  0  0  0  0  0  0  0  0
   -8.9065   -4.0444  -27.1321 N   0  0  0  0  0  0  0  0  0  0  0  0
   -9.7195   -5.2281  -26.6988 C   0  0  0  0  0  0  0  0  0  0  0  0
   -7.5445   -3.6762  -26.6229 N   0  0  0  0  0  0  0  0  0  0  0  0
  2  1  1  0  0  0
  2  3  1  0  0  0
  3  4  1  0  0  0
  4 19  1  0  0  0
 19 20  2  0  0  0
 20 21  1  0  0  0
 21 22  2  0  0  0
 22 23  1  0  0  0
 23 24  2  0  0  0
 24 25  1  0  0  0
 25 26  2  0  0  0
 26 27  1  0  0  0
 27 28  2  0  0  0
  4  5  1  0  0  0
  5  6  2  0  0  0
  5  7  1  0  0  0
  7  8  1  0  0  0
  8  9  1  0  0  0
  9 29  1  0  0  0
 29 30  1  0  0  0
 30 31  1  0  0  0
 31 32  2  0  0  0
 32 33  1  0  0  0
 33 34  1  0  0  0
 33 35  1  0  0  0
  9 10  1  0  0  0
 10 11  2  0  0  0
 10 12  1  0  0  0
 12 13  2  0  0  0
 13 14  1  0  0  0
 14 15  2  0  0  0
 15 16  1  0  0  0
 15 17  1  0  0  0
 17 18  2  0  0  0
  7  2  1  0  0  0
 35 30  2  0  0  0
 18 12  1  0  0  0
 28 19  1  0  0  0
 18  7  1  0  0  0
 28 23  1  0  0  0
M  END
> <minimizedAffinity>
-7.91539

> <CNNscore>
0.2422354668

> <CNNaffinity>
6.0769028664

> <CNN_VS>
1.4720413685

> <CNNaffinity_variance>
0.2448087633

$$$$
