


 40 44  0  0  0  0  0  0  0  0999 V2000
    9.6270    0.7752   22.6969 N   0  0  0  0  0  0  0  0  0  0  0  0
    8.5155   -0.2188   22.5347 C   0  0  0  0  0  0  0  0  0  0  0  0
    8.5531   -1.5156   23.2877 C   0  0  0  0  0  0  0  0  0  0  0  0
    8.4541   -2.8470   23.9715 C   0  0  0  0  0  0  0  0  0  0  0  0
    9.0706   -3.5371   24.7589 O   0  0  0  0  0  0  0  0  0  0  0  0
    7.1852   -3.5070   23.5197 N   0  0  0  0  0  0  0  0  0  0  0  0
    6.4999   -2.5835   22.5566 C   0  0  0  0  0  0  0  0  0  0  0  0
    7.3453   -1.3528   22.4132 C   0  0  0  0  0  0  0  0  0  0  0  0
    9.7024   -1.8184   24.2029 C   0  0  0  0  0  0  0  0  0  0  0  0
    9.7401   -3.1151   24.9559 C   0  0  0  0  0  0  0  0  0  0  0  0
   10.8893   -3.4178   25.8710 C   0  0  0  0  0  0  0  0  0  0  0  0
   10.9270   -4.7146   26.6241 Cl  0  0  0  0  0  0  0  0  0  0  0  0
   12.0009   -2.4238   26.0332 C   0  0  0  0  0  0  0  0  0  0  0  0
   11.9632   -1.1271   25.2803 C   0  0  0  0  0  0  0  0  0  0  0  0
   10.8140   -0.8244   24.3651 C   0  0  0  0  0  0  0  0  0  0  0  0
   10.7763    0.4724   23.6121 C   0  0  0  0  0  0  0  0  0  0  0  0
   11.8879    1.4665   23.7743 O   0  0  0  0  0  0  0  0  0  0  0  0
    6.6887   -4.8540   23.9546 C   0  0  0  0  0  0  0  0  0  0  0  0
    7.2879   -6.0987   23.3701 C   0  0  0  0  0  0  0  0  0  0  0  0
    6.7914   -7.4457   23.8050 N   0  0  0  0  0  0  0  0  0  0  0  0
    5.6958   -7.5479   24.8244 C   0  0  0  0  0  0  0  0  0  0  0  0
    5.0966   -6.3031   25.4088 C   0  0  0  0  0  0  0  0  0  0  0  0
    4.0009   -6.4054   26.4283 C   0  0  0  0  0  0  0  0  0  0  0  0
    3.4019   -5.1606   27.0127 C   0  0  0  0  0  0  0  0  0  0  0  0
    3.8983   -3.8136   26.5778 C   0  0  0  0  0  0  0  0  0  0  0  0
    4.9939   -3.7114   25.5584 C   0  0  0  0  0  0  0  0  0  0  0  0
    5.5931   -4.9562   24.9739 C   0  0  0  0  0  0  0  0  0  0  0  0
    9.5893    2.0720   21.9439 C   0  0  0  0  0  0  0  0  0  0  0  0
   11.0473    5.5235   23.2521 C   0  0  0  0  0  0  0  0  0  0  0  0
   10.0749    4.4322   22.9153 N   0  0  0  0  0  0  0  0  0  0  0  0
   10.5618    3.1633   22.2806 C   0  0  0  0  0  0  0  0  0  0  0  0
   12.0212    2.9857   21.9826 O   0  0  0  0  0  0  0  0  0  0  0  0
    9.1171    4.5487   23.1109 H   0  0  0  0  0  0  0  0  0  0  0  0
    7.0371   -0.1673   21.5473 C   0  0  0  0  0  0  0  0  0  0  0  0
    6.1419   -0.3227   20.3539 S   0  0  0  0  0  0  0  0  0  0  0  0
    7.1329    0.4259   19.5129 O   0  0  0  0  0  0  0  0  0  0  0  0
    5.1507   -1.0714   21.1949 O   0  0  0  0  0  0  0  0  0  0  0  0
    5.2466   -0.4782   19.1605 N   0  0  0  0  0  0  0  0  0  0  0  0
    5.2688    0.5487   18.0673 C   0  0  0  0  0  0  0  0  0  0  0  0
    4.6226   -1.2822   19.0924 H   0  0  0  0  0  0  0  0  0  0  0  0
 29 30  1  0  0  0
 30 31  1  0  0  0
 31 32  2  0  0  0
 31 28  1  0  0  0
 28  1  1  0  0  0
  1  2  1  0  0  0
  3  2  1  0  0  0
  3  4  1  0  0  0
  4  5  2  0  0  0
  4  6  1  0  0  0
  6 18  1  0  0  0
 18 19  2  0  0  0
 19 20  1  0  0  0
 20 21  2  0  0  0
 21 22  1  0  0  0
 22 23  2  0  0  0
 23 24  1  0  0  0
 24 25  2  0  0  0
 25 26  1  0  0  0
 26 27  2  0  0  0
  6  7  1  0  0  0
  7  8  1  0  0  0
  8 34  1  0  0  0
 34 35  1  0  0  0
 35 36  2  0  0  0
 35 37  2  0  0  0
 35 38  1  0  0  0
 38 39  1  0  0  0
  3  9  1  0  0  0
  9 10  2  0  0  0
 10 11  1  0  0  0
 11 12  1  0  0  0
 11 13  2  0  0  0
 13 14  1  0  0  0
 14 15  2  0  0  0
 15 16  1  0  0  0
 16 17  2  0  0  0
 16  1  1  0  0  0
  8  3  1  0  0  0
 15  9  1  0  0  0
 27 18  1  0  0  0
 27 22  1  0  0  0
 30 33  1  0  0  0
 38 40  1  0  0  0
M  END
> <minimizedAffinity>
-9.09519

> <CNNscore>
0.7152440548

> <CNNaffinity>
7.2276101112

> <CNN_VS>
5.1695051193

> <CNNaffinity_variance>
0.0925343186

$$$$



 40 44  0  0  0  0  0  0  0  0999 V2000
    6.6758   -3.2851   22.8230 N   0  0  0  0  0  0  0  0  0  0  0  0
    6.9984   -1.9108   22.3158 C   0  0  0  0  0  0  0  0  0  0  0  0
    8.2029   -1.1832   22.8352 C   0  0  0  0  0  0  0  0  0  0  0  0
    9.3671   -0.3377   23.2592 C   0  0  0  0  0  0  0  0  0  0  0  0
   10.3222   -0.3776   24.0091 O   0  0  0  0  0  0  0  0  0  0  0  0
    9.3017    0.9549   22.5010 N   0  0  0  0  0  0  0  0  0  0  0  0
    8.0971    0.9083   21.6084 C   0  0  0  0  0  0  0  0  0  0  0  0
    7.4180   -0.4132   21.8149 C   0  0  0  0  0  0  0  0  0  0  0  0
    9.0849   -1.8300   23.8619 C   0  0  0  0  0  0  0  0  0  0  0  0
   10.2894   -1.1024   24.3813 C   0  0  0  0  0  0  0  0  0  0  0  0
   11.1712   -1.7492   25.4079 C   0  0  0  0  0  0  0  0  0  0  0  0
   12.3758   -1.0216   25.9274 Cl  0  0  0  0  0  0  0  0  0  0  0  0
   10.8486   -3.1235   25.9151 C   0  0  0  0  0  0  0  0  0  0  0  0
    9.6441   -3.8510   25.3957 C   0  0  0  0  0  0  0  0  0  0  0  0
    8.7623   -3.2043   24.3691 C   0  0  0  0  0  0  0  0  0  0  0  0
    7.5577   -3.9318   23.8496 C   0  0  0  0  0  0  0  0  0  0  0  0
    7.2351   -5.3061   24.3568 O   0  0  0  0  0  0  0  0  0  0  0  0
   10.2707    2.0942   22.6154 C   0  0  0  0  0  0  0  0  0  0  0  0
   11.7423    1.8451   22.4648 C   0  0  0  0  0  0  0  0  0  0  0  0
   12.7113    2.9843   22.5792 N   0  0  0  0  0  0  0  0  0  0  0  0
   12.2088    4.3726   22.8441 C   0  0  0  0  0  0  0  0  0  0  0  0
   10.7373    4.6216   22.9947 C   0  0  0  0  0  0  0  0  0  0  0  0
   10.2349    6.0100   23.2596 C   0  0  0  0  0  0  0  0  0  0  0  0
    8.7633    6.2590   23.4101 C   0  0  0  0  0  0  0  0  0  0  0  0
    7.7943    5.1197   23.2958 C   0  0  0  0  0  0  0  0  0  0  0  0
    8.2968    3.7315   23.0309 C   0  0  0  0  0  0  0  0  0  0  0  0
    9.7683    3.4824   22.8803 C   0  0  0  0  0  0  0  0  0  0  0  0
    5.4713   -4.0126   22.3035 C   0  0  0  0  0  0  0  0  0  0  0  0
    4.1442   -7.1244   24.3786 C   0  0  0  0  0  0  0  0  0  0  0  0
    4.4044   -5.7083   23.9577 N   0  0  0  0  0  0  0  0  0  0  0  0
    5.2111   -5.4287   22.7244 C   0  0  0  0  0  0  0  0  0  0  0  0
    5.7576   -6.5651   21.9119 O   0  0  0  0  0  0  0  0  0  0  0  0
    4.0457   -4.9625   24.4909 H   0  0  0  0  0  0  0  0  0  0  0  0
    6.1727   -0.8822   21.1227 C   0  0  0  0  0  0  0  0  0  0  0  0
    6.0078   -0.6659   19.6476 S   0  0  0  0  0  0  0  0  0  0  0  0
    6.9246    0.5191   19.7188 O   0  0  0  0  0  0  0  0  0  0  0  0
    5.0909   -1.8510   19.5764 O   0  0  0  0  0  0  0  0  0  0  0  0
    5.8427   -0.4497   18.1725 N   0  0  0  0  0  0  0  0  0  0  0  0
    5.0269    0.7046   17.6702 C   0  0  0  0  0  0  0  0  0  0  0  0
    6.2853   -1.0876   17.5109 H   0  0  0  0  0  0  0  0  0  0  0  0
 29 30  1  0  0  0
 30 31  1  0  0  0
 31 32  2  0  0  0
 31 28  1  0  0  0
 28  1  1  0  0  0
  1  2  1  0  0  0
  3  2  1  0  0  0
  3  4  1  0  0  0
  4  5  2  0  0  0
  4  6  1  0  0  0
  6 18  1  0  0  0
 18 19  2  0  0  0
 19 20  1  0  0  0
 20 21  2  0  0  0
 21 22  1  0  0  0
 22 23  2  0  0  0
 23 24  1  0  0  0
 24 25  2  0  0  0
 25 26  1  0  0  0
 26 27  2  0  0  0
  6  7  1  0  0  0
  7  8  1  0  0  0
  8 34  1  0  0  0
 34 35  1  0  0  0
 35 36  2  0  0  0
 35 37  2  0  0  0
 35 38  1  0  0  0
 38 39  1  0  0  0
  3  9  1  0  0  0
  9 10  2  0  0  0
 10 11  1  0  0  0
 11 12  1  0  0  0
 11 13  2  0  0  0
 13 14  1  0  0  0
 14 15  2  0  0  0
 15 16  1  0  0  0
 16 17  2  0  0  0
 16  1  1  0  0  0
  8  3  1  0  0  0
 15  9  1  0  0  0
 27 18  1  0  0  0
 27 22  1  0  0  0
 30 33  1  0  0  0
 38 40  1  0  0  0
M  END
> <minimizedAffinity>
-8.75728

> <CNNscore>
0.5647791028

> <CNNaffinity>
6.9212822914

> <CNN_VS>
3.9089956284

> <CNNaffinity_variance>
0.1977760643

$$$$



 40 44  0  0  0  0  0  0  0  0999 V2000
   10.5447    0.6517   23.1570 N   0  0  0  0  0  0  0  0  0  0  0  0
    9.1516    0.1180   23.3136 C   0  0  0  0  0  0  0  0  0  0  0  0
    8.8976   -1.0681   24.1959 C   0  0  0  0  0  0  0  0  0  0  0  0
    8.4922   -2.2405   25.0391 C   0  0  0  0  0  0  0  0  0  0  0  0
    8.9838   -3.0682   25.7805 O   0  0  0  0  0  0  0  0  0  0  0  0
    7.0094   -2.4201   24.9011 N   0  0  0  0  0  0  0  0  0  0  0  0
    6.4984   -1.3586   23.9727 C   0  0  0  0  0  0  0  0  0  0  0  0
    7.6654   -0.5230   23.5368 C   0  0  0  0  0  0  0  0  0  0  0  0
   10.0368   -1.7206   24.9218 C   0  0  0  0  0  0  0  0  0  0  0  0
    9.7828   -2.9067   25.8041 C   0  0  0  0  0  0  0  0  0  0  0  0
   10.9219   -3.5591   26.5299 C   0  0  0  0  0  0  0  0  0  0  0  0
   10.6680   -4.7453   27.4123 Cl  0  0  0  0  0  0  0  0  0  0  0  0
   12.3150   -3.0254   26.3733 C   0  0  0  0  0  0  0  0  0  0  0  0
   12.5689   -1.8393   25.4909 C   0  0  0  0  0  0  0  0  0  0  0  0
   11.4298   -1.1869   24.7652 C   0  0  0  0  0  0  0  0  0  0  0  0
   11.6838   -0.0007   23.8827 C   0  0  0  0  0  0  0  0  0  0  0  0
   13.0768    0.5330   23.7262 O   0  0  0  0  0  0  0  0  0  0  0  0
    6.1828   -3.4758   25.5736 C   0  0  0  0  0  0  0  0  0  0  0  0
    5.8177   -4.7278   24.8323 C   0  0  0  0  0  0  0  0  0  0  0  0
    4.9911   -5.7835   25.5048 N   0  0  0  0  0  0  0  0  0  0  0  0
    4.5296   -5.5873   26.9185 C   0  0  0  0  0  0  0  0  0  0  0  0
    4.8947   -4.3353   27.6597 C   0  0  0  0  0  0  0  0  0  0  0  0
    4.4332   -4.1392   29.0735 C   0  0  0  0  0  0  0  0  0  0  0  0
    4.7984   -2.8872   29.8146 C   0  0  0  0  0  0  0  0  0  0  0  0
    5.6250   -1.8315   29.1422 C   0  0  0  0  0  0  0  0  0  0  0  0
    6.0865   -2.0277   27.7285 C   0  0  0  0  0  0  0  0  0  0  0  0
    5.7213   -3.2796   26.9873 C   0  0  0  0  0  0  0  0  0  0  0  0
   10.7986    1.8379   22.2746 C   0  0  0  0  0  0  0  0  0  0  0  0
    9.1420    5.2738   23.3699 C   0  0  0  0  0  0  0  0  0  0  0  0
    9.2967    3.8856   22.8233 N   0  0  0  0  0  0  0  0  0  0  0  0
   10.6439    3.2261   22.8213 C   0  0  0  0  0  0  0  0  0  0  0  0
   11.8365    3.9549   23.3660 O   0  0  0  0  0  0  0  0  0  0  0  0
    8.5140    3.4073   22.4658 H   0  0  0  0  0  0  0  0  0  0  0  0
    7.6098    0.6514   22.6054 C   0  0  0  0  0  0  0  0  0  0  0  0
    7.2887    0.4439   21.1550 S   0  0  0  0  0  0  0  0  0  0  0  0
    6.9269   -0.9837   21.4393 O   0  0  0  0  0  0  0  0  0  0  0  0
    7.6506    1.8716   20.8707 O   0  0  0  0  0  0  0  0  0  0  0  0
    6.9677    0.2365   19.7046 N   0  0  0  0  0  0  0  0  0  0  0  0
    5.5892    0.5314   19.1918 C   0  0  0  0  0  0  0  0  0  0  0  0
    7.6868   -0.1051   19.0669 H   0  0  0  0  0  0  0  0  0  0  0  0
 29 30  1  0  0  0
 30 31  1  0  0  0
 31 32  2  0  0  0
 31 28  1  0  0  0
 28  1  1  0  0  0
  1  2  1  0  0  0
  3  2  1  0  0  0
  3  4  1  0  0  0
  4  5  2  0  0  0
  4  6  1  0  0  0
  6 18  1  0  0  0
 18 19  2  0  0  0
 19 20  1  0  0  0
 20 21  2  0  0  0
 21 22  1  0  0  0
 22 23  2  0  0  0
 23 24  1  0  0  0
 24 25  2  0  0  0
 25 26  1  0  0  0
 26 27  2  0  0  0
  6  7  1  0  0  0
  7  8  1  0  0  0
  8 34  1  0  0  0
 34 35  1  0  0  0
 35 36  2  0  0  0
 35 37  2  0  0  0
 35 38  1  0  0  0
 38 39  1  0  0  0
  3  9  1  0  0  0
  9 10  2  0  0  0
 10 11  1  0  0  0
 11 12  1  0  0  0
 11 13  2  0  0  0
 13 14  1  0  0  0
 14 15  2  0  0  0
 15 16  1  0  0  0
 16 17  2  0  0  0
 16  1  1  0  0  0
  8  3  1  0  0  0
 15  9  1  0  0  0
 27 18  1  0  0  0
 27 22  1  0  0  0
 30 33  1  0  0  0
 38 40  1  0  0  0
M  END
> <minimizedAffinity>
-8.19891

> <CNNscore>
0.4042115211

> <CNNaffinity>
6.8470716476

> <CNN_VS>
2.7676651478

> <CNNaffinity_variance>
0.0625432134

$$$$



 40 44  0  0  0  0  0  0  0  0999 V2000
    4.9977    3.7631   22.5119 N   0  0  0  0  0  0  0  0  0  0  0  0
    5.7767    2.4852   22.4115 C   0  0  0  0  0  0  0  0  0  0  0  0
    6.2922    1.8215   23.6539 C   0  0  0  0  0  0  0  0  0  0  0  0
    6.8678    1.0472   24.8024 C   0  0  0  0  0  0  0  0  0  0  0  0
    6.9414    1.0963   26.0143 O   0  0  0  0  0  0  0  0  0  0  0  0
    7.5637   -0.1594   24.2457 N   0  0  0  0  0  0  0  0  0  0  0  0
    7.4182   -0.1308   22.7530 C   0  0  0  0  0  0  0  0  0  0  0  0
    6.6324    1.0934   22.3873 C   0  0  0  0  0  0  0  0  0  0  0  0
    6.0287    2.4357   24.9968 C   0  0  0  0  0  0  0  0  0  0  0  0
    6.5442    1.7720   26.2393 C   0  0  0  0  0  0  0  0  0  0  0  0
    6.2808    2.3862   27.5821 C   0  0  0  0  0  0  0  0  0  0  0  0
    6.7963    1.7225   28.8246 Cl  0  0  0  0  0  0  0  0  0  0  0  0
    5.5018    3.6641   27.6825 C   0  0  0  0  0  0  0  0  0  0  0  0
    4.9863    4.3278   26.4401 C   0  0  0  0  0  0  0  0  0  0  0  0
    5.2497    3.7136   25.0973 C   0  0  0  0  0  0  0  0  0  0  0  0
    4.7342    4.3773   23.8547 C   0  0  0  0  0  0  0  0  0  0  0  0
    3.9552    5.6552   23.9551 O   0  0  0  0  0  0  0  0  0  0  0  0
    8.2795   -1.2100   25.0418 C   0  0  0  0  0  0  0  0  0  0  0  0
    7.4958   -2.2238   25.8216 C   0  0  0  0  0  0  0  0  0  0  0  0
    8.2115   -3.2745   26.6177 N   0  0  0  0  0  0  0  0  0  0  0  0
    9.7110   -3.3113   26.6341 C   0  0  0  0  0  0  0  0  0  0  0  0
   10.4947   -2.2974   25.8544 C   0  0  0  0  0  0  0  0  0  0  0  0
   11.9942   -2.3342   25.8708 C   0  0  0  0  0  0  0  0  0  0  0  0
   12.7778   -1.3204   25.0911 C   0  0  0  0  0  0  0  0  0  0  0  0
   12.0621   -0.2697   24.2949 C   0  0  0  0  0  0  0  0  0  0  0  0
   10.5626   -0.2329   24.2785 C   0  0  0  0  0  0  0  0  0  0  0  0
    9.7789   -1.2468   25.0583 C   0  0  0  0  0  0  0  0  0  0  0  0
    4.4822    4.4268   21.2694 C   0  0  0  0  0  0  0  0  0  0  0  0
    1.5528    2.6267   19.2873 C   0  0  0  0  0  0  0  0  0  0  0  0
    2.9232    2.9566   19.8004 N   0  0  0  0  0  0  0  0  0  0  0  0
    3.1118    4.0970   20.7563 C   0  0  0  0  0  0  0  0  0  0  0  0
    1.9299    4.9076   21.1993 O   0  0  0  0  0  0  0  0  0  0  0  0
    3.6989    2.4246   19.5096 H   0  0  0  0  0  0  0  0  0  0  0  0
    6.2533    1.5155   20.9987 C   0  0  0  0  0  0  0  0  0  0  0  0
    5.7115    0.5068   20.0298 S   0  0  0  0  0  0  0  0  0  0  0  0
    7.0361    0.4702   19.3271 O   0  0  0  0  0  0  0  0  0  0  0  0
    4.3867    0.5433   20.7326 O   0  0  0  0  0  0  0  0  0  0  0  0
    5.1696   -0.5019   19.0609 N   0  0  0  0  0  0  0  0  0  0  0  0
    5.3463   -1.9676   19.3268 C   0  0  0  0  0  0  0  0  0  0  0  0
    4.6809   -0.1912   18.2213 H   0  0  0  0  0  0  0  0  0  0  0  0
 29 30  1  0  0  0
 30 31  1  0  0  0
 31 32  2  0  0  0
 31 28  1  0  0  0
 28  1  1  0  0  0
  1  2  1  0  0  0
  3  2  1  0  0  0
  3  4  1  0  0  0
  4  5  2  0  0  0
  4  6  1  0  0  0
  6 18  1  0  0  0
 18 19  2  0  0  0
 19 20  1  0  0  0
 20 21  2  0  0  0
 21 22  1  0  0  0
 22 23  2  0  0  0
 23 24  1  0  0  0
 24 25  2  0  0  0
 25 26  1  0  0  0
 26 27  2  0  0  0
  6  7  1  0  0  0
  7  8  1  0  0  0
  8 34  1  0  0  0
 34 35  1  0  0  0
 35 36  2  0  0  0
 35 37  2  0  0  0
 35 38  1  0  0  0
 38 39  1  0  0  0
  3  9  1  0  0  0
  9 10  2  0  0  0
 10 11  1  0  0  0
 11 12  1  0  0  0
 11 13  2  0  0  0
 13 14  1  0  0  0
 14 15  2  0  0  0
 15 16  1  0  0  0
 16 17  2  0  0  0
 16  1  1  0  0  0
  8  3  1  0  0  0
 15  9  1  0  0  0
 27 18  1  0  0  0
 27 22  1  0  0  0
 30 33  1  0  0  0
 38 40  1  0  0  0
M  END
> <minimizedAffinity>
-7.04831

> <CNNscore>
0.3781348169

> <CNNaffinity>
6.4407281876

> <CNN_VS>
2.4354636669

> <CNNaffinity_variance>
0.0207653996

$$$$



 40 44  0  0  0  0  0  0  0  0999 V2000
   10.6027    1.4265   22.7683 N   0  0  0  0  0  0  0  0  0  0  0  0
    9.2065    0.9670   23.0671 C   0  0  0  0  0  0  0  0  0  0  0  0
    8.9811   -0.2088   23.9708 C   0  0  0  0  0  0  0  0  0  0  0  0
    8.6021   -1.3627   24.8510 C   0  0  0  0  0  0  0  0  0  0  0  0
    9.1221   -2.2195   25.5379 O   0  0  0  0  0  0  0  0  0  0  0  0
    7.1055   -1.4622   24.8661 N   0  0  0  0  0  0  0  0  0  0  0  0
    6.5595   -0.3698   23.9952 C   0  0  0  0  0  0  0  0  0  0  0  0
    7.7187    0.4048   23.4418 C   0  0  0  0  0  0  0  0  0  0  0  0
   10.1521   -0.9252   24.5756 C   0  0  0  0  0  0  0  0  0  0  0  0
    9.9268   -2.1010   25.4793 C   0  0  0  0  0  0  0  0  0  0  0  0
   11.0977   -2.8173   26.0841 C   0  0  0  0  0  0  0  0  0  0  0  0
   10.8724   -3.9932   26.9878 Cl  0  0  0  0  0  0  0  0  0  0  0  0
   12.4939   -2.3577   25.7852 C   0  0  0  0  0  0  0  0  0  0  0  0
   12.7193   -1.1819   24.8816 C   0  0  0  0  0  0  0  0  0  0  0  0
   11.5483   -0.4656   24.2768 C   0  0  0  0  0  0  0  0  0  0  0  0
   11.7736    0.7103   23.3731 C   0  0  0  0  0  0  0  0  0  0  0  0
   13.1699    1.1698   23.0742 O   0  0  0  0  0  0  0  0  0  0  0  0
    6.2968   -2.4761   25.6198 C   0  0  0  0  0  0  0  0  0  0  0  0
    6.0553   -3.8331   25.0279 C   0  0  0  0  0  0  0  0  0  0  0  0
    5.2467   -4.8470   25.7816 N   0  0  0  0  0  0  0  0  0  0  0  0
    4.6795   -4.5039   27.1272 C   0  0  0  0  0  0  0  0  0  0  0  0
    4.9210   -3.1469   27.7190 C   0  0  0  0  0  0  0  0  0  0  0  0
    4.3537   -2.8038   29.0647 C   0  0  0  0  0  0  0  0  0  0  0  0
    4.5952   -1.4468   29.6565 C   0  0  0  0  0  0  0  0  0  0  0  0
    5.4039   -0.4329   28.9028 C   0  0  0  0  0  0  0  0  0  0  0  0
    5.9711   -0.7760   27.5572 C   0  0  0  0  0  0  0  0  0  0  0  0
    5.7296   -2.1330   26.9653 C   0  0  0  0  0  0  0  0  0  0  0  0
   10.8280    2.6024   21.8646 C   0  0  0  0  0  0  0  0  0  0  0  0
   10.5143    6.2111   23.4860 C   0  0  0  0  0  0  0  0  0  0  0  0
   10.1371    4.8804   22.9054 N   0  0  0  0  0  0  0  0  0  0  0  0
   11.2052    3.9331   22.4452 C   0  0  0  0  0  0  0  0  0  0  0  0
   12.6504    4.3164   22.5656 O   0  0  0  0  0  0  0  0  0  0  0  0
    9.1886    4.6289   22.8264 H   0  0  0  0  0  0  0  0  0  0  0  0
    7.6309    1.5858   22.5212 C   0  0  0  0  0  0  0  0  0  0  0  0
    6.5149    1.6776   21.5232 S   0  0  0  0  0  0  0  0  0  0  0  0
    7.3348    0.9021   20.5350 O   0  0  0  0  0  0  0  0  0  0  0  0
    5.6950    2.4531   22.5114 O   0  0  0  0  0  0  0  0  0  0  0  0
    5.3988    1.7693   20.5253 N   0  0  0  0  0  0  0  0  0  0  0  0
    4.0761    1.1252   20.8180 C   0  0  0  0  0  0  0  0  0  0  0  0
    5.5393    2.2697   19.6477 H   0  0  0  0  0  0  0  0  0  0  0  0
 29 30  1  0  0  0
 30 31  1  0  0  0
 31 32  2  0  0  0
 31 28  1  0  0  0
 28  1  1  0  0  0
  1  2  1  0  0  0
  3  2  1  0  0  0
  3  4  1  0  0  0
  4  5  2  0  0  0
  4  6  1  0  0  0
  6 18  1  0  0  0
 18 19  2  0  0  0
 19 20  1  0  0  0
 20 21  2  0  0  0
 21 22  1  0  0  0
 22 23  2  0  0  0
 23 24  1  0  0  0
 24 25  2  0  0  0
 25 26  1  0  0  0
 26 27  2  0  0  0
  6  7  1  0  0  0
  7  8  1  0  0  0
  8 34  1  0  0  0
 34 35  1  0  0  0
 35 36  2  0  0  0
 35 37  2  0  0  0
 35 38  1  0  0  0
 38 39  1  0  0  0
  3  9  1  0  0  0
  9 10  2  0  0  0
 10 11  1  0  0  0
 11 12  1  0  0  0
 11 13  2  0  0  0
 13 14  1  0  0  0
 14 15  2  0  0  0
 15 16  1  0  0  0
 16 17  2  0  0  0
 16  1  1  0  0  0
  8  3  1  0  0  0
 15  9  1  0  0  0
 27 18  1  0  0  0
 27 22  1  0  0  0
 30 33  1  0  0  0
 38 40  1  0  0  0
M  END
> <minimizedAffinity>
-7.70134

> <CNNscore>
0.3758903146

> <CNNaffinity>
6.7878465652

> <CNN_VS>
2.5514857769

> <CNNaffinity_variance>
0.0650517717

$$$$



 40 44  0  0  0  0  0  0  0  0999 V2000
   10.4724    0.4591   23.6097 N   0  0  0  0  0  0  0  0  0  0  0  0
    9.0793    0.0935   24.0289 C   0  0  0  0  0  0  0  0  0  0  0  0
    8.8554   -1.0552   24.9671 C   0  0  0  0  0  0  0  0  0  0  0  0
    8.4782   -2.1723   25.8942 C   0  0  0  0  0  0  0  0  0  0  0  0
    8.9979   -3.0530   26.5505 O   0  0  0  0  0  0  0  0  0  0  0  0
    6.9846   -2.1754   26.0329 N   0  0  0  0  0  0  0  0  0  0  0  0
    6.4387   -1.0600   25.1915 C   0  0  0  0  0  0  0  0  0  0  0  0
    7.5950   -0.3677   24.5328 C   0  0  0  0  0  0  0  0  0  0  0  0
   10.0247   -1.8384   25.4863 C   0  0  0  0  0  0  0  0  0  0  0  0
    9.8009   -2.9870   26.4246 C   0  0  0  0  0  0  0  0  0  0  0  0
   10.9701   -3.7702   26.9437 C   0  0  0  0  0  0  0  0  0  0  0  0
   10.7463   -4.9189   27.8820 Cl  0  0  0  0  0  0  0  0  0  0  0  0
   12.3632   -3.4046   26.5245 C   0  0  0  0  0  0  0  0  0  0  0  0
   12.5870   -2.2559   25.5862 C   0  0  0  0  0  0  0  0  0  0  0  0
   11.4178   -1.4728   25.0671 C   0  0  0  0  0  0  0  0  0  0  0  0
   11.6416   -0.3241   24.1288 C   0  0  0  0  0  0  0  0  0  0  0  0
   13.0347    0.0415   23.7096 O   0  0  0  0  0  0  0  0  0  0  0  0
    6.1784   -3.1267   26.8666 C   0  0  0  0  0  0  0  0  0  0  0  0
    6.0745   -2.9221   28.3490 C   0  0  0  0  0  0  0  0  0  0  0  0
    5.2683   -3.8735   29.1827 N   0  0  0  0  0  0  0  0  0  0  0  0
    4.5661   -5.0294   28.5340 C   0  0  0  0  0  0  0  0  0  0  0  0
    4.6701   -5.2339   27.0516 C   0  0  0  0  0  0  0  0  0  0  0  0
    3.9678   -6.3899   26.4030 C   0  0  0  0  0  0  0  0  0  0  0  0
    4.0718   -6.5944   24.9206 C   0  0  0  0  0  0  0  0  0  0  0  0
    4.8780   -5.6431   24.0869 C   0  0  0  0  0  0  0  0  0  0  0  0
    5.5802   -4.4872   24.7356 C   0  0  0  0  0  0  0  0  0  0  0  0
    5.4762   -4.2826   26.2179 C   0  0  0  0  0  0  0  0  0  0  0  0
   10.6962    1.6078   22.6714 C   0  0  0  0  0  0  0  0  0  0  0  0
    8.2902    4.7138   23.2322 C   0  0  0  0  0  0  0  0  0  0  0  0
    9.3775    3.7047   23.4551 N   0  0  0  0  0  0  0  0  0  0  0  0
    9.6089    2.6169   22.4485 C   0  0  0  0  0  0  0  0  0  0  0  0
    8.7532    2.5382   21.2190 O   0  0  0  0  0  0  0  0  0  0  0  0
    9.9391    3.7563   24.2620 H   0  0  0  0  0  0  0  0  0  0  0  0
    7.5063    0.8060   23.6030 C   0  0  0  0  0  0  0  0  0  0  0  0
    6.2438    1.0600   22.8340 S   0  0  0  0  0  0  0  0  0  0  0  0
    5.8779    2.1519   23.7951 O   0  0  0  0  0  0  0  0  0  0  0  0
    6.6098   -0.0320   21.8727 O   0  0  0  0  0  0  0  0  0  0  0  0
    4.9813    1.3139   22.0648 N   0  0  0  0  0  0  0  0  0  0  0  0
    4.5889    0.3978   20.9437 C   0  0  0  0  0  0  0  0  0  0  0  0
    4.3896    2.1095   22.3042 H   0  0  0  0  0  0  0  0  0  0  0  0
 29 30  1  0  0  0
 30 31  1  0  0  0
 31 32  2  0  0  0
 31 28  1  0  0  0
 28  1  1  0  0  0
  1  2  1  0  0  0
  3  2  1  0  0  0
  3  4  1  0  0  0
  4  5  2  0  0  0
  4  6  1  0  0  0
  6 18  1  0  0  0
 18 19  2  0  0  0
 19 20  1  0  0  0
 20 21  2  0  0  0
 21 22  1  0  0  0
 22 23  2  0  0  0
 23 24  1  0  0  0
 24 25  2  0  0  0
 25 26  1  0  0  0
 26 27  2  0  0  0
  6  7  1  0  0  0
  7  8  1  0  0  0
  8 34  1  0  0  0
 34 35  1  0  0  0
 35 36  2  0  0  0
 35 37  2  0  0  0
 35 38  1  0  0  0
 38 39  1  0  0  0
  3  9  1  0  0  0
  9 10  2  0  0  0
 10 11  1  0  0  0
 11 12  1  0  0  0
 11 13  2  0  0  0
 13 14  1  0  0  0
 14 15  2  0  0  0
 15 16  1  0  0  0
 16 17  2  0  0  0
 16  1  1  0  0  0
  8  3  1  0  0  0
 15  9  1  0  0  0
 27 18  1  0  0  0
 27 22  1  0  0  0
 30 33  1  0  0  0
 38 40  1  0  0  0
M  END
> <minimizedAffinity>
-7.62898

> <CNNscore>
0.3625876009

> <CNNaffinity>
6.6146073341

> <CNN_VS>
2.3983745575

> <CNNaffinity_variance>
0.0978476927

$$$$



 40 44  0  0  0  0  0  0  0  0999 V2000
    5.7972   -2.7483   22.8331 N   0  0  0  0  0  0  0  0  0  0  0  0
    6.2014   -1.4671   22.1658 C   0  0  0  0  0  0  0  0  0  0  0  0
    6.4290   -0.2329   22.9874 C   0  0  0  0  0  0  0  0  0  0  0  0
    6.6903    1.0747   23.6743 C   0  0  0  0  0  0  0  0  0  0  0  0
    6.6912    1.5562   24.7899 O   0  0  0  0  0  0  0  0  0  0  0  0
    7.0657    2.0814   22.6276 N   0  0  0  0  0  0  0  0  0  0  0  0
    7.0363    1.3959   21.2937 C   0  0  0  0  0  0  0  0  0  0  0  0
    6.6428   -0.0344   21.5161 C   0  0  0  0  0  0  0  0  0  0  0  0
    6.2523   -0.2799   24.4763 C   0  0  0  0  0  0  0  0  0  0  0  0
    6.4798    0.9543   25.2978 C   0  0  0  0  0  0  0  0  0  0  0  0
    6.3031    0.9073   26.7866 C   0  0  0  0  0  0  0  0  0  0  0  0
    6.5306    2.1415   27.6082 Cl  0  0  0  0  0  0  0  0  0  0  0  0
    5.8989   -0.3739   27.4538 C   0  0  0  0  0  0  0  0  0  0  0  0
    5.6714   -1.6081   26.6323 C   0  0  0  0  0  0  0  0  0  0  0  0
    5.8480   -1.5611   25.1435 C   0  0  0  0  0  0  0  0  0  0  0  0
    5.6205   -2.7953   24.3218 C   0  0  0  0  0  0  0  0  0  0  0  0
    5.2163   -4.0765   24.9891 O   0  0  0  0  0  0  0  0  0  0  0  0
    7.4099    3.5207   22.8719 C   0  0  0  0  0  0  0  0  0  0  0  0
    6.3187    4.5255   23.0949 C   0  0  0  0  0  0  0  0  0  0  0  0
    6.6630    5.9648   23.3392 N   0  0  0  0  0  0  0  0  0  0  0  0
    8.0985    6.3995   23.3604 C   0  0  0  0  0  0  0  0  0  0  0  0
    9.1897    5.3947   23.1373 C   0  0  0  0  0  0  0  0  0  0  0  0
   10.6252    5.8294   23.1585 C   0  0  0  0  0  0  0  0  0  0  0  0
   11.7164    4.8246   22.9354 C   0  0  0  0  0  0  0  0  0  0  0  0
   11.3721    3.3852   22.6912 C   0  0  0  0  0  0  0  0  0  0  0  0
    9.9366    2.9506   22.6700 C   0  0  0  0  0  0  0  0  0  0  0  0
    8.8454    3.9553   22.8931 C   0  0  0  0  0  0  0  0  0  0  0  0
    5.5697   -3.9825   22.0114 C   0  0  0  0  0  0  0  0  0  0  0  0
    7.3551   -7.0771   23.7394 C   0  0  0  0  0  0  0  0  0  0  0  0
    7.1400   -5.7221   23.1328 N   0  0  0  0  0  0  0  0  0  0  0  0
    5.7847   -5.3374   22.6179 C   0  0  0  0  0  0  0  0  0  0  0  0
    4.6444   -6.3077   22.7096 O   0  0  0  0  0  0  0  0  0  0  0  0
    7.8884   -5.0853   23.0727 H   0  0  0  0  0  0  0  0  0  0  0  0
    6.4900   -1.0821   20.4536 C   0  0  0  0  0  0  0  0  0  0  0  0
    5.8481   -0.7338   19.1435 S   0  0  0  0  0  0  0  0  0  0  0  0
    4.9195   -1.9029   19.2875 O   0  0  0  0  0  0  0  0  0  0  0  0
    6.7768    0.4354   18.9994 O   0  0  0  0  0  0  0  0  0  0  0  0
    5.2062   -0.3854   17.8333 N   0  0  0  0  0  0  0  0  0  0  0  0
    5.1410    1.0453   17.3869 C   0  0  0  0  0  0  0  0  0  0  0  0
    4.8141   -1.1213   17.2459 H   0  0  0  0  0  0  0  0  0  0  0  0
 29 30  1  0  0  0
 30 31  1  0  0  0
 31 32  2  0  0  0
 31 28  1  0  0  0
 28  1  1  0  0  0
  1  2  1  0  0  0
  3  2  1  0  0  0
  3  4  1  0  0  0
  4  5  2  0  0  0
  4  6  1  0  0  0
  6 18  1  0  0  0
 18 19  2  0  0  0
 19 20  1  0  0  0
 20 21  2  0  0  0
 21 22  1  0  0  0
 22 23  2  0  0  0
 23 24  1  0  0  0
 24 25  2  0  0  0
 25 26  1  0  0  0
 26 27  2  0  0  0
  6  7  1  0  0  0
  7  8  1  0  0  0
  8 34  1  0  0  0
 34 35  1  0  0  0
 35 36  2  0  0  0
 35 37  2  0  0  0
 35 38  1  0  0  0
 38 39  1  0  0  0
  3  9  1  0  0  0
  9 10  2  0  0  0
 10 11  1  0  0  0
 11 12  1  0  0  0
 11 13  2  0  0  0
 13 14  1  0  0  0
 14 15  2  0  0  0
 15 16  1  0  0  0
 16 17  2  0  0  0
 16  1  1  0  0  0
  8  3  1  0  0  0
 15  9  1  0  0  0
 27 18  1  0  0  0
 27 22  1  0  0  0
 30 33  1  0  0  0
 38 40  1  0  0  0
M  END
> <minimizedAffinity>
-7.10121

> <CNNscore>
0.3566709757

> <CNNaffinity>
6.5469322205

> <CNN_VS>
2.3351006508

> <CNNaffinity_variance>
0.2425981760

$$$$



 40 44  0  0  0  0  0  0  0  0999 V2000
    4.1182    1.2152   23.6262 N   0  0  0  0  0  0  0  0  0  0  0  0
    5.5567    0.7909   23.6519 C   0  0  0  0  0  0  0  0  0  0  0  0
    6.0158   -0.2445   24.6353 C   0  0  0  0  0  0  0  0  0  0  0  0
    6.6184   -1.2629   25.5571 C   0  0  0  0  0  0  0  0  0  0  0  0
    6.2944   -2.0072   26.4613 O   0  0  0  0  0  0  0  0  0  0  0  0
    8.0793   -1.3727   25.2353 N   0  0  0  0  0  0  0  0  0  0  0  0
    8.3797   -0.4220   24.1145 C   0  0  0  0  0  0  0  0  0  0  0  0
    7.1044    0.2752   23.7438 C   0  0  0  0  0  0  0  0  0  0  0  0
    5.0364   -0.8557   25.5931 C   0  0  0  0  0  0  0  0  0  0  0  0
    5.4955   -1.8911   26.5765 C   0  0  0  0  0  0  0  0  0  0  0  0
    4.5161   -2.5022   27.5342 C   0  0  0  0  0  0  0  0  0  0  0  0
    4.9752   -3.5377   28.5177 Cl  0  0  0  0  0  0  0  0  0  0  0  0
    3.0776   -2.0779   27.5085 C   0  0  0  0  0  0  0  0  0  0  0  0
    2.6185   -1.0426   26.5251 C   0  0  0  0  0  0  0  0  0  0  0  0
    3.5979   -0.4314   25.5674 C   0  0  0  0  0  0  0  0  0  0  0  0
    3.1388    0.6040   24.5839 C   0  0  0  0  0  0  0  0  0  0  0  0
    1.7003    1.0283   24.5582 O   0  0  0  0  0  0  0  0  0  0  0  0
    9.0665   -2.2747   25.9148 C   0  0  0  0  0  0  0  0  0  0  0  0
    8.5832   -3.3696   26.8191 C   0  0  0  0  0  0  0  0  0  0  0  0
    9.5704   -4.2716   27.4987 N   0  0  0  0  0  0  0  0  0  0  0  0
   11.0409   -4.0787   27.2740 C   0  0  0  0  0  0  0  0  0  0  0  0
   11.5242   -2.9838   26.3697 C   0  0  0  0  0  0  0  0  0  0  0  0
   12.9947   -2.7910   26.1450 C   0  0  0  0  0  0  0  0  0  0  0  0
   13.4779   -1.6961   25.2407 C   0  0  0  0  0  0  0  0  0  0  0  0
   12.4907   -0.7941   24.5611 C   0  0  0  0  0  0  0  0  0  0  0  0
   11.0202   -0.9869   24.7858 C   0  0  0  0  0  0  0  0  0  0  0  0
   10.5370   -2.0818   25.6901 C   0  0  0  0  0  0  0  0  0  0  0  0
    3.6591    2.2506   22.6427 C   0  0  0  0  0  0  0  0  0  0  0  0
    4.1418    1.3587   18.8059 C   0  0  0  0  0  0  0  0  0  0  0  0
    4.4527    1.7526   20.2195 N   0  0  0  0  0  0  0  0  0  0  0  0
    3.3483    1.8567   21.2291 C   0  0  0  0  0  0  0  0  0  0  0  0
    1.9330    1.5668   20.8253 O   0  0  0  0  0  0  0  0  0  0  0  0
    5.3815    1.9429   20.4845 H   0  0  0  0  0  0  0  0  0  0  0  0
    6.9456    1.3105   22.6699 C   0  0  0  0  0  0  0  0  0  0  0  0
    8.1549    1.9864   22.0951 S   0  0  0  0  0  0  0  0  0  0  0  0
    8.2648    2.8367   23.3259 O   0  0  0  0  0  0  0  0  0  0  0  0
    8.0451    1.1362   20.8642 O   0  0  0  0  0  0  0  0  0  0  0  0
    9.3642    2.6624   21.5201 N   0  0  0  0  0  0  0  0  0  0  0  0
   10.6018    2.8212   22.3529 C   0  0  0  0  0  0  0  0  0  0  0  0
    9.3451    3.0141   20.5629 H   0  0  0  0  0  0  0  0  0  0  0  0
 29 30  1  0  0  0
 30 31  1  0  0  0
 31 32  2  0  0  0
 31 28  1  0  0  0
 28  1  1  0  0  0
  1  2  1  0  0  0
  3  2  1  0  0  0
  3  4  1  0  0  0
  4  5  2  0  0  0
  4  6  1  0  0  0
  6 18  1  0  0  0
 18 19  2  0  0  0
 19 20  1  0  0  0
 20 21  2  0  0  0
 21 22  1  0  0  0
 22 23  2  0  0  0
 23 24  1  0  0  0
 24 25  2  0  0  0
 25 26  1  0  0  0
 26 27  2  0  0  0
  6  7  1  0  0  0
  7  8  1  0  0  0
  8 34  1  0  0  0
 34 35  1  0  0  0
 35 36  2  0  0  0
 35 37  2  0  0  0
 35 38  1  0  0  0
 38 39  1  0  0  0
  3  9  1  0  0  0
  9 10  2  0  0  0
 10 11  1  0  0  0
 11 12  1  0  0  0
 11 13  2  0  0  0
 13 14  1  0  0  0
 14 15  2  0  0  0
 15 16  1  0  0  0
 16 17  2  0  0  0
 16  1  1  0  0  0
  8  3  1  0  0  0
 15  9  1  0  0  0
 27 18  1  0  0  0
 27 22  1  0  0  0
 30 33  1  0  0  0
 38 40  1  0  0  0
M  END
> <minimizedAffinity>
-7.38976

> <CNNscore>
0.3307062984

> <CNNaffinity>
6.4660553932

> <CNN_VS>
2.1383652687

> <CNNaffinity_variance>
0.1433498859

$$$$



 40 44  0  0  0  0  0  0  0  0999 V2000
   10.8175    1.4555   22.7334 N   0  0  0  0  0  0  0  0  0  0  0  0
    9.4206    0.9968   23.0305 C   0  0  0  0  0  0  0  0  0  0  0  0
    9.1945   -0.2024   23.9027 C   0  0  0  0  0  0  0  0  0  0  0  0
    8.8147   -1.3781   24.7533 C   0  0  0  0  0  0  0  0  0  0  0  0
    9.3344   -2.2572   25.4118 O   0  0  0  0  0  0  0  0  0  0  0  0
    7.3176   -1.4683   24.7777 N   0  0  0  0  0  0  0  0  0  0  0  0
    6.7721   -0.3484   23.9421 C   0  0  0  0  0  0  0  0  0  0  0  0
    7.9321    0.4339   23.4013 C   0  0  0  0  0  0  0  0  0  0  0  0
   10.3654   -0.9430   24.4778 C   0  0  0  0  0  0  0  0  0  0  0  0
   10.1393   -2.1422   25.3500 C   0  0  0  0  0  0  0  0  0  0  0  0
   11.3102   -2.8827   25.9251 C   0  0  0  0  0  0  0  0  0  0  0  0
   11.0841   -4.0820   26.7973 Cl  0  0  0  0  0  0  0  0  0  0  0  0
   12.7071   -2.4240   25.6280 C   0  0  0  0  0  0  0  0  0  0  0  0
   12.9331   -1.2248   24.7558 C   0  0  0  0  0  0  0  0  0  0  0  0
   11.7623   -0.4843   24.1807 C   0  0  0  0  0  0  0  0  0  0  0  0
   11.9883    0.7150   23.3085 C   0  0  0  0  0  0  0  0  0  0  0  0
   13.3852    1.1737   23.0114 O   0  0  0  0  0  0  0  0  0  0  0  0
    6.5082   -2.4977   25.5092 C   0  0  0  0  0  0  0  0  0  0  0  0
    5.9089   -2.1703   26.8448 C   0  0  0  0  0  0  0  0  0  0  0  0
    5.0995   -3.1997   27.5763 N   0  0  0  0  0  0  0  0  0  0  0  0
    4.8893   -4.5565   26.9722 C   0  0  0  0  0  0  0  0  0  0  0  0
    5.4885   -4.8839   25.6366 C   0  0  0  0  0  0  0  0  0  0  0  0
    5.2783   -6.2408   25.0326 C   0  0  0  0  0  0  0  0  0  0  0  0
    5.8775   -6.5681   23.6970 C   0  0  0  0  0  0  0  0  0  0  0  0
    6.6870   -5.5387   22.9655 C   0  0  0  0  0  0  0  0  0  0  0  0
    6.8972   -4.1819   23.5695 C   0  0  0  0  0  0  0  0  0  0  0  0
    6.2980   -3.8545   24.9051 C   0  0  0  0  0  0  0  0  0  0  0  0
   11.0435    2.6548   21.8612 C   0  0  0  0  0  0  0  0  0  0  0  0
   10.3786    6.2305   23.4492 C   0  0  0  0  0  0  0  0  0  0  0  0
   10.1325    4.8874   22.8284 N   0  0  0  0  0  0  0  0  0  0  0  0
   11.2896    3.9979   22.4820 C   0  0  0  0  0  0  0  0  0  0  0  0
   12.6928    4.4517   22.7562 O   0  0  0  0  0  0  0  0  0  0  0  0
    9.2116    4.5896   22.6484 H   0  0  0  0  0  0  0  0  0  0  0  0
    7.8450    1.6408   22.5148 C   0  0  0  0  0  0  0  0  0  0  0  0
    6.6407    1.8469   21.6447 S   0  0  0  0  0  0  0  0  0  0  0  0
    5.9806    2.6268   22.7430 O   0  0  0  0  0  0  0  0  0  0  0  0
    7.3007    1.0671   20.5464 O   0  0  0  0  0  0  0  0  0  0  0  0
    5.4364    2.0530   20.7746 N   0  0  0  0  0  0  0  0  0  0  0  0
    4.6425    0.8719   20.3005 C   0  0  0  0  0  0  0  0  0  0  0  0
    5.1573    2.9964   20.5052 H   0  0  0  0  0  0  0  0  0  0  0  0
 29 30  1  0  0  0
 30 31  1  0  0  0
 31 32  2  0  0  0
 31 28  1  0  0  0
 28  1  1  0  0  0
  1  2  1  0  0  0
  3  2  1  0  0  0
  3  4  1  0  0  0
  4  5  2  0  0  0
  4  6  1  0  0  0
  6 18  1  0  0  0
 18 19  2  0  0  0
 19 20  1  0  0  0
 20 21  2  0  0  0
 21 22  1  0  0  0
 22 23  2  0  0  0
 23 24  1  0  0  0
 24 25  2  0  0  0
 25 26  1  0  0  0
 26 27  2  0  0  0
  6  7  1  0  0  0
  7  8  1  0  0  0
  8 34  1  0  0  0
 34 35  1  0  0  0
 35 36  2  0  0  0
 35 37  2  0  0  0
 35 38  1  0  0  0
 38 39  1  0  0  0
  3  9  1  0  0  0
  9 10  2  0  0  0
 10 11  1  0  0  0
 11 12  1  0  0  0
 11 13  2  0  0  0
 13 14  1  0  0  0
 14 15  2  0  0  0
 15 16  1  0  0  0
 16 17  2  0  0  0
 16  1  1  0  0  0
  8  3  1  0  0  0
 15  9  1  0  0  0
 27 18  1  0  0  0
 27 22  1  0  0  0
 30 33  1  0  0  0
 38 40  1  0  0  0
M  END
> <minimizedAffinity>
-8.17114

> <CNNscore>
0.2924778461

> <CNNaffinity>
6.7961759567

> <CNN_VS>
1.9877308607

> <CNNaffinity_variance>
0.0940274373

$$$$
