


 37 41  0  0  0  0  0  0  0  0999 V2000
   -8.6848   -1.0298  -23.5620 N   0  0  0  0  0  0  0  0  0  0  0  0
   -7.8470   -1.0177  -22.3178 C   0  0  0  0  0  0  0  0  0  0  0  0
   -8.3610   -0.3556  -21.0739 O   0  0  0  0  0  0  0  0  0  0  0  0
  -11.6207    3.2489  -23.8332 N   0  0  0  0  0  0  0  0  0  0  0  0
  -10.3849    4.0882  -23.9684 C   0  0  0  0  0  0  0  0  0  0  0  0
   -9.0330    3.4382  -23.9682 C   0  0  0  0  0  0  0  0  0  0  0  0
   -8.9170    1.9489  -23.8328 C   0  0  0  0  0  0  0  0  0  0  0  0
  -10.1527    1.1096  -23.6976 C   0  0  0  0  0  0  0  0  0  0  0  0
  -10.0367   -0.3798  -23.5622 C   0  0  0  0  0  0  0  0  0  0  0  0
  -11.2725   -1.2192  -23.4270 C   0  0  0  0  0  0  0  0  0  0  0  0
  -12.6243   -0.5692  -23.4272 C   0  0  0  0  0  0  0  0  0  0  0  0
  -12.7404    0.9202  -23.5626 C   0  0  0  0  0  0  0  0  0  0  0  0
  -11.5046    1.7596  -23.6978 C   0  0  0  0  0  0  0  0  0  0  0  0
  -10.7334    2.8223  -23.8331 H   0  0  0  0  0  0  0  0  0  0  0  0
  -12.9725    3.8989  -23.8334 C   0  0  0  0  0  0  0  0  0  0  0  0
  -13.7762    3.9586  -22.5683 O   0  0  0  0  0  0  0  0  0  0  0  0
  -12.6176    4.7110  -26.2756 C   0  0  0  0  0  0  0  0  0  0  0  0
  -13.5207    4.4892  -25.0987 C   0  0  0  0  0  0  0  0  0  0  0  0
   -8.1708   -1.6919  -24.8059 C   0  0  0  0  0  0  0  0  0  0  0  0
   -8.2379   -3.1841  -24.9438 C   0  0  0  0  0  0  0  0  0  0  0  0
   -7.0891   -4.0321  -24.4844 C   0  0  0  0  0  0  0  0  0  0  0  0
   -7.1562   -5.5243  -24.6223 C   0  0  0  0  0  0  0  0  0  0  0  0
   -8.3721   -6.1683  -25.2197 C   0  0  0  0  0  0  0  0  0  0  0  0
   -9.5209   -5.3203  -25.6791 C   0  0  0  0  0  0  0  0  0  0  0  0
  -10.7368   -5.9643  -26.2765 Cl  0  0  0  0  0  0  0  0  0  0  0  0
   -9.4538   -3.8281  -25.5412 C   0  0  0  0  0  0  0  0  0  0  0  0
   -6.4951   -1.6677  -22.3176 C   0  0  0  0  0  0  0  0  0  0  0  0
   -5.2831   -0.8777  -22.7135 C   0  0  0  0  0  0  0  0  0  0  0  0
   -4.8042   -0.9006  -24.1348 C   0  0  0  0  0  0  0  0  0  0  0  0
   -3.5921   -0.1107  -24.5307 N   0  0  0  0  0  0  0  0  0  0  0  0
   -2.8588    0.7023  -23.5052 C   0  0  0  0  0  0  0  0  0  0  0  0
   -3.3377    0.7252  -22.0839 C   0  0  0  0  0  0  0  0  0  0  0  0
   -2.6045    1.5381  -21.0584 C   0  0  0  0  0  0  0  0  0  0  0  0
   -3.0834    1.5610  -19.6371 C   0  0  0  0  0  0  0  0  0  0  0  0
   -4.2955    0.7711  -19.2412 C   0  0  0  0  0  0  0  0  0  0  0  0
   -5.0288   -0.0419  -20.2667 C   0  0  0  0  0  0  0  0  0  0  0  0
   -4.5499   -0.0648  -21.6880 C   0  0  0  0  0  0  0  0  0  0  0  0
 17 18  1  0  0  0
 18 15  1  0  0  0
 15 16  2  0  0  0
  4 15  1  0  0  0
  4  5  1  0  0  0
  5  6  1  0  0  0
  6  7  1  0  0  0
  7  8  1  0  0  0
  8  9  2  0  0  0
  9  1  1  0  0  0
  1 19  1  0  0  0
 19 20  1  0  0  0
 20 21  2  0  0  0
 21 22  1  0  0  0
 22 23  2  0  0  0
 23 24  1  0  0  0
 24 25  1  0  0  0
 24 26  2  0  0  0
  1  2  1  0  0  0
  2  3  2  0  0  0
  2 27  1  0  0  0
 27 28  1  0  0  0
 28 29  2  0  0  0
 29 30  1  0  0  0
 30 31  2  0  0  0
 31 32  1  0  0  0
 32 33  2  0  0  0
 33 34  1  0  0  0
 34 35  2  0  0  0
 35 36  1  0  0  0
 36 37  2  0  0  0
  9 10  1  0  0  0
 10 11  2  0  0  0
 11 12  1  0  0  0
 12 13  2  0  0  0
 13  4  1  0  0  0
 13  8  1  0  0  0
 26 20  1  0  0  0
 37 28  1  0  0  0
 37 32  1  0  0  0
  4 14  1  0  0  0
M  CHG 1   4   1
M  END
> <minimizedAffinity>
-8.22593

> <CNNscore>
0.4991173744

> <CNNaffinity>
6.6243796349

> <CNN_VS>
3.3063430786

> <CNNaffinity_variance>
0.0905836225

$$$$



 37 41  0  0  0  0  0  0  0  0999 V2000
   -8.0342   -0.9704  -23.0601 N   0  0  0  0  0  0  0  0  0  0  0  0
   -7.3079   -0.7229  -21.7711 C   0  0  0  0  0  0  0  0  0  0  0  0
   -7.9981   -0.0097  -20.6464 O   0  0  0  0  0  0  0  0  0  0  0  0
  -11.4393    2.8492  -23.9634 N   0  0  0  0  0  0  0  0  0  0  0  0
  -10.3090    3.8276  -24.0868 C   0  0  0  0  0  0  0  0  0  0  0  0
   -8.8926    3.3619  -23.9226 C   0  0  0  0  0  0  0  0  0  0  0  0
   -8.6065    1.9178  -23.6351 C   0  0  0  0  0  0  0  0  0  0  0  0
   -9.7367    0.9394  -23.5118 C   0  0  0  0  0  0  0  0  0  0  0  0
   -9.4506   -0.5047  -23.2242 C   0  0  0  0  0  0  0  0  0  0  0  0
  -10.5809   -1.4831  -23.1009 C   0  0  0  0  0  0  0  0  0  0  0  0
  -11.9973   -1.0174  -23.2650 C   0  0  0  0  0  0  0  0  0  0  0  0
  -12.2834    0.4267  -23.5525 C   0  0  0  0  0  0  0  0  0  0  0  0
  -11.1531    1.4051  -23.6759 C   0  0  0  0  0  0  0  0  0  0  0  0
  -10.5096    2.5435  -23.8557 H   0  0  0  0  0  0  0  0  0  0  0  0
  -12.8557    3.3149  -24.1276 C   0  0  0  0  0  0  0  0  0  0  0  0
  -13.9309    2.7764  -23.2311 O   0  0  0  0  0  0  0  0  0  0  0  0
  -13.3272    5.7706  -24.8328 C   0  0  0  0  0  0  0  0  0  0  0  0
  -13.1968    4.3191  -25.1883 C   0  0  0  0  0  0  0  0  0  0  0  0
   -7.3441   -1.6836  -24.1848 C   0  0  0  0  0  0  0  0  0  0  0  0
   -7.5842   -3.1480  -24.4038 C   0  0  0  0  0  0  0  0  0  0  0  0
   -8.1005   -3.6339  -25.7257 C   0  0  0  0  0  0  0  0  0  0  0  0
   -8.3406   -5.0983  -25.9447 C   0  0  0  0  0  0  0  0  0  0  0  0
   -8.0644   -6.0767  -24.8418 C   0  0  0  0  0  0  0  0  0  0  0  0
   -7.5481   -5.5908  -23.5200 C   0  0  0  0  0  0  0  0  0  0  0  0
   -7.2719   -6.5693  -22.4171 Cl  0  0  0  0  0  0  0  0  0  0  0  0
   -7.3080   -4.1265  -23.3010 C   0  0  0  0  0  0  0  0  0  0  0  0
   -5.8916   -1.1886  -21.6070 C   0  0  0  0  0  0  0  0  0  0  0  0
   -4.8410   -0.2365  -21.1175 C   0  0  0  0  0  0  0  0  0  0  0  0
   -4.8304    0.1949  -19.6809 C   0  0  0  0  0  0  0  0  0  0  0  0
   -3.7798    1.1470  -19.1915 N   0  0  0  0  0  0  0  0  0  0  0  0
   -2.7397    1.6679  -20.1386 C   0  0  0  0  0  0  0  0  0  0  0  0
   -2.7503    1.2365  -21.5752 C   0  0  0  0  0  0  0  0  0  0  0  0
   -1.7103    1.7573  -22.5224 C   0  0  0  0  0  0  0  0  0  0  0  0
   -1.7209    1.3259  -23.9590 C   0  0  0  0  0  0  0  0  0  0  0  0
   -2.7715    0.3738  -24.4484 C   0  0  0  0  0  0  0  0  0  0  0  0
   -3.8115   -0.1470  -23.5013 C   0  0  0  0  0  0  0  0  0  0  0  0
   -3.8009    0.2843  -22.0647 C   0  0  0  0  0  0  0  0  0  0  0  0
 17 18  1  0  0  0
 18 15  1  0  0  0
 15 16  2  0  0  0
  4 15  1  0  0  0
  4  5  1  0  0  0
  5  6  1  0  0  0
  6  7  1  0  0  0
  7  8  1  0  0  0
  8  9  2  0  0  0
  9  1  1  0  0  0
  1 19  1  0  0  0
 19 20  1  0  0  0
 20 21  2  0  0  0
 21 22  1  0  0  0
 22 23  2  0  0  0
 23 24  1  0  0  0
 24 25  1  0  0  0
 24 26  2  0  0  0
  1  2  1  0  0  0
  2  3  2  0  0  0
  2 27  1  0  0  0
 27 28  1  0  0  0
 28 29  2  0  0  0
 29 30  1  0  0  0
 30 31  2  0  0  0
 31 32  1  0  0  0
 32 33  2  0  0  0
 33 34  1  0  0  0
 34 35  2  0  0  0
 35 36  1  0  0  0
 36 37  2  0  0  0
  9 10  1  0  0  0
 10 11  2  0  0  0
 11 12  1  0  0  0
 12 13  2  0  0  0
 13  4  1  0  0  0
 13  8  1  0  0  0
 26 20  1  0  0  0
 37 28  1  0  0  0
 37 32  1  0  0  0
  4 14  1  0  0  0
M  CHG 1   4   1
M  END
> <minimizedAffinity>
-8.09809

> <CNNscore>
0.4501126409

> <CNNaffinity>
6.5659637451

> <CNN_VS>
2.9554233551

> <CNNaffinity_variance>
0.1154396385

$$$$



 37 41  0  0  0  0  0  0  0  0999 V2000
   -9.1371   -1.1920  -23.1112 N   0  0  0  0  0  0  0  0  0  0  0  0
   -8.3892   -1.6679  -24.3212 C   0  0  0  0  0  0  0  0  0  0  0  0
   -8.9223   -1.3806  -25.6935 O   0  0  0  0  0  0  0  0  0  0  0  0
  -11.6299    3.2919  -23.9366 N   0  0  0  0  0  0  0  0  0  0  0  0
  -10.3144    4.0070  -24.0246 C   0  0  0  0  0  0  0  0  0  0  0  0
   -9.0334    3.2437  -23.8623 C   0  0  0  0  0  0  0  0  0  0  0  0
   -9.0679    1.7652  -23.6119 C   0  0  0  0  0  0  0  0  0  0  0  0
  -10.3835    1.0500  -23.5239 C   0  0  0  0  0  0  0  0  0  0  0  0
  -10.4181   -0.4286  -23.2735 C   0  0  0  0  0  0  0  0  0  0  0  0
  -11.7337   -1.1438  -23.1854 C   0  0  0  0  0  0  0  0  0  0  0  0
  -13.0147   -0.3804  -23.3477 C   0  0  0  0  0  0  0  0  0  0  0  0
  -12.9801    1.0981  -23.5981 C   0  0  0  0  0  0  0  0  0  0  0  0
  -11.6645    1.8133  -23.6862 C   0  0  0  0  0  0  0  0  0  0  0  0
  -10.7892    2.7909  -23.8300 H   0  0  0  0  0  0  0  0  0  0  0  0
  -12.9109    4.0552  -24.0989 C   0  0  0  0  0  0  0  0  0  0  0  0
  -13.8036    4.2826  -22.9151 O   0  0  0  0  0  0  0  0  0  0  0  0
  -12.9398    5.9971  -25.8246 C   0  0  0  0  0  0  0  0  0  0  0  0
  -13.2992    4.5912  -25.4449 C   0  0  0  0  0  0  0  0  0  0  0  0
   -8.6040   -1.4794  -21.7389 C   0  0  0  0  0  0  0  0  0  0  0  0
   -7.4319   -0.7054  -21.2123 C   0  0  0  0  0  0  0  0  0  0  0  0
   -6.7635    0.3232  -22.0756 C   0  0  0  0  0  0  0  0  0  0  0  0
   -5.5914    1.0971  -21.5491 C   0  0  0  0  0  0  0  0  0  0  0  0
   -5.0878    0.8424  -20.1592 C   0  0  0  0  0  0  0  0  0  0  0  0
   -5.7563   -0.1861  -19.2960 C   0  0  0  0  0  0  0  0  0  0  0  0
   -5.2527   -0.4408  -17.9062 Cl  0  0  0  0  0  0  0  0  0  0  0  0
   -6.9283   -0.9601  -19.8226 C   0  0  0  0  0  0  0  0  0  0  0  0
   -7.1082   -2.4313  -24.1589 C   0  0  0  0  0  0  0  0  0  0  0  0
   -7.1433   -3.8899  -23.8110 C   0  0  0  0  0  0  0  0  0  0  0  0
   -6.4942   -4.3758  -22.5490 C   0  0  0  0  0  0  0  0  0  0  0  0
   -6.5293   -5.8344  -22.2010 N   0  0  0  0  0  0  0  0  0  0  0  0
   -7.2135   -6.8073  -23.1151 C   0  0  0  0  0  0  0  0  0  0  0  0
   -7.8626   -6.3214  -24.3771 C   0  0  0  0  0  0  0  0  0  0  0  0
   -8.5468   -7.2942  -25.2911 C   0  0  0  0  0  0  0  0  0  0  0  0
   -9.1959   -6.8084  -26.5531 C   0  0  0  0  0  0  0  0  0  0  0  0
   -9.1608   -5.3498  -26.9011 C   0  0  0  0  0  0  0  0  0  0  0  0
   -8.4766   -4.3769  -25.9870 C   0  0  0  0  0  0  0  0  0  0  0  0
   -7.8275   -4.8627  -24.7250 C   0  0  0  0  0  0  0  0  0  0  0  0
 17 18  1  0  0  0
 18 15  1  0  0  0
 15 16  2  0  0  0
  4 15  1  0  0  0
  4  5  1  0  0  0
  5  6  1  0  0  0
  6  7  1  0  0  0
  7  8  1  0  0  0
  8  9  2  0  0  0
  9  1  1  0  0  0
  1 19  1  0  0  0
 19 20  1  0  0  0
 20 21  2  0  0  0
 21 22  1  0  0  0
 22 23  2  0  0  0
 23 24  1  0  0  0
 24 25  1  0  0  0
 24 26  2  0  0  0
  1  2  1  0  0  0
  2  3  2  0  0  0
  2 27  1  0  0  0
 27 28  1  0  0  0
 28 29  2  0  0  0
 29 30  1  0  0  0
 30 31  2  0  0  0
 31 32  1  0  0  0
 32 33  2  0  0  0
 33 34  1  0  0  0
 34 35  2  0  0  0
 35 36  1  0  0  0
 36 37  2  0  0  0
  9 10  1  0  0  0
 10 11  2  0  0  0
 11 12  1  0  0  0
 12 13  2  0  0  0
 13  4  1  0  0  0
 13  8  1  0  0  0
 26 20  1  0  0  0
 37 28  1  0  0  0
 37 32  1  0  0  0
  4 14  1  0  0  0
M  CHG 1   4   1
M  END
> <minimizedAffinity>
-8.40707

> <CNNscore>
0.2348179221

> <CNNaffinity>
6.5328950882

> <CNN_VS>
1.5340408087

> <CNNaffinity_variance>
0.2383526117

$$$$



 37 41  0  0  0  0  0  0  0  0999 V2000
   -9.1228   -0.3416  -23.8899 N   0  0  0  0  0  0  0  0  0  0  0  0
   -9.1018   -1.7020  -24.5215 C   0  0  0  0  0  0  0  0  0  0  0  0
  -10.3749   -2.3149  -25.0249 O   0  0  0  0  0  0  0  0  0  0  0  0
  -11.7325    4.1501  -23.7708 N   0  0  0  0  0  0  0  0  0  0  0  0
  -10.4490    4.9010  -23.9677 C   0  0  0  0  0  0  0  0  0  0  0  0
   -9.1548    4.1535  -24.0960 C   0  0  0  0  0  0  0  0  0  0  0  0
   -9.1441    2.6552  -24.0273 C   0  0  0  0  0  0  0  0  0  0  0  0
  -10.4276    1.9043  -23.8303 C   0  0  0  0  0  0  0  0  0  0  0  0
  -10.4169    0.4058  -23.7616 C   0  0  0  0  0  0  0  0  0  0  0  0
  -11.7004   -0.3451  -23.5647 C   0  0  0  0  0  0  0  0  0  0  0  0
  -12.9946    0.4024  -23.4365 C   0  0  0  0  0  0  0  0  0  0  0  0
  -13.0053    1.9007  -23.5051 C   0  0  0  0  0  0  0  0  0  0  0  0
  -11.7218    2.6517  -23.7021 C   0  0  0  0  0  0  0  0  0  0  0  0
  -10.8831    3.6595  -23.8549 H   0  0  0  0  0  0  0  0  0  0  0  0
  -13.0266    4.8975  -23.6425 C   0  0  0  0  0  0  0  0  0  0  0  0
  -13.9098    4.6691  -22.4519 O   0  0  0  0  0  0  0  0  0  0  0  0
  -13.4037    5.4685  -26.1489 C   0  0  0  0  0  0  0  0  0  0  0  0
  -13.4376    5.8734  -24.7050 C   0  0  0  0  0  0  0  0  0  0  0  0
   -7.8496    0.2713  -23.3865 C   0  0  0  0  0  0  0  0  0  0  0  0
   -7.3347   -0.0828  -22.0229 C   0  0  0  0  0  0  0  0  0  0  0  0
   -8.1074   -1.0283  -21.1516 C   0  0  0  0  0  0  0  0  0  0  0  0
   -7.5924   -1.3824  -19.7880 C   0  0  0  0  0  0  0  0  0  0  0  0
   -6.3048   -0.7910  -19.2957 C   0  0  0  0  0  0  0  0  0  0  0  0
   -5.5322    0.1544  -20.1669 C   0  0  0  0  0  0  0  0  0  0  0  0
   -4.2445    0.7458  -19.6746 Cl  0  0  0  0  0  0  0  0  0  0  0  0
   -6.0471    0.5085  -21.5306 C   0  0  0  0  0  0  0  0  0  0  0  0
   -7.8076   -2.4495  -24.6498 C   0  0  0  0  0  0  0  0  0  0  0  0
   -7.8126   -3.9461  -24.7500 C   0  0  0  0  0  0  0  0  0  0  0  0
   -8.4926   -4.6182  -25.9058 C   0  0  0  0  0  0  0  0  0  0  0  0
   -8.4976   -6.1148  -26.0060 N   0  0  0  0  0  0  0  0  0  0  0  0
   -7.8226   -6.9394  -24.9503 C   0  0  0  0  0  0  0  0  0  0  0  0
   -7.1427   -6.2674  -23.7944 C   0  0  0  0  0  0  0  0  0  0  0  0
   -6.4678   -7.0919  -22.7387 C   0  0  0  0  0  0  0  0  0  0  0  0
   -5.7878   -6.4199  -21.5829 C   0  0  0  0  0  0  0  0  0  0  0  0
   -5.7828   -4.9233  -21.4827 C   0  0  0  0  0  0  0  0  0  0  0  0
   -6.4577   -4.0986  -22.5384 C   0  0  0  0  0  0  0  0  0  0  0  0
   -7.1377   -4.7707  -23.6943 C   0  0  0  0  0  0  0  0  0  0  0  0
 17 18  1  0  0  0
 18 15  1  0  0  0
 15 16  2  0  0  0
  4 15  1  0  0  0
  4  5  1  0  0  0
  5  6  1  0  0  0
  6  7  1  0  0  0
  7  8  1  0  0  0
  8  9  2  0  0  0
  9  1  1  0  0  0
  1 19  1  0  0  0
 19 20  1  0  0  0
 20 21  2  0  0  0
 21 22  1  0  0  0
 22 23  2  0  0  0
 23 24  1  0  0  0
 24 25  1  0  0  0
 24 26  2  0  0  0
  1  2  1  0  0  0
  2  3  2  0  0  0
  2 27  1  0  0  0
 27 28  1  0  0  0
 28 29  2  0  0  0
 29 30  1  0  0  0
 30 31  2  0  0  0
 31 32  1  0  0  0
 32 33  2  0  0  0
 33 34  1  0  0  0
 34 35  2  0  0  0
 35 36  1  0  0  0
 36 37  2  0  0  0
  9 10  1  0  0  0
 10 11  2  0  0  0
 11 12  1  0  0  0
 12 13  2  0  0  0
 13  4  1  0  0  0
 13  8  1  0  0  0
 26 20  1  0  0  0
 37 28  1  0  0  0
 37 32  1  0  0  0
  4 14  1  0  0  0
M  CHG 1   4   1
M  END
> <minimizedAffinity>
-8.48697

> <CNNscore>
0.2228197753

> <CNNaffinity>
6.3316431046

> <CNN_VS>
1.4108152390

> <CNNaffinity_variance>
0.3316497803

$$$$



 37 41  0  0  0  0  0  0  0  0999 V2000
   -8.9898   -0.1202  -23.7702 N   0  0  0  0  0  0  0  0  0  0  0  0
   -8.9975   -1.4857  -24.3913 C   0  0  0  0  0  0  0  0  0  0  0  0
  -10.2823   -2.0732  -24.8951 O   0  0  0  0  0  0  0  0  0  0  0  0
  -11.5126    4.4222  -23.8149 N   0  0  0  0  0  0  0  0  0  0  0  0
  -10.2195    5.1378  -24.0717 C   0  0  0  0  0  0  0  0  0  0  0  0
   -8.9423    4.3600  -24.1889 C   0  0  0  0  0  0  0  0  0  0  0  0
   -8.9581    2.8666  -24.0494 C   0  0  0  0  0  0  0  0  0  0  0  0
  -10.2512    2.1510  -23.7926 C   0  0  0  0  0  0  0  0  0  0  0  0
  -10.2670    0.6576  -23.6530 C   0  0  0  0  0  0  0  0  0  0  0  0
  -11.5600   -0.0580  -23.3962 C   0  0  0  0  0  0  0  0  0  0  0  0
  -12.8373    0.7198  -23.2790 C   0  0  0  0  0  0  0  0  0  0  0  0
  -12.8214    2.2131  -23.4186 C   0  0  0  0  0  0  0  0  0  0  0  0
  -11.5284    2.9288  -23.6754 C   0  0  0  0  0  0  0  0  0  0  0  0
  -10.6743    3.9117  -23.8919 H   0  0  0  0  0  0  0  0  0  0  0  0
  -12.7898    5.2000  -23.6977 C   0  0  0  0  0  0  0  0  0  0  0  0
  -13.4638    5.3387  -22.3649 O   0  0  0  0  0  0  0  0  0  0  0  0
  -13.2099    5.2078  -26.2616 C   0  0  0  0  0  0  0  0  0  0  0  0
  -13.3930    5.8391  -24.9133 C   0  0  0  0  0  0  0  0  0  0  0  0
   -7.7049    0.4673  -23.2664 C   0  0  0  0  0  0  0  0  0  0  0  0
   -7.1895    0.0909  -21.9089 C   0  0  0  0  0  0  0  0  0  0  0  0
   -7.9482   -0.8891  -21.0638 C   0  0  0  0  0  0  0  0  0  0  0  0
   -7.4328   -1.2655  -19.7064 C   0  0  0  0  0  0  0  0  0  0  0  0
   -6.1587   -0.6619  -19.1940 C   0  0  0  0  0  0  0  0  0  0  0  0
   -5.4001    0.3180  -20.0391 C   0  0  0  0  0  0  0  0  0  0  0  0
   -4.1259    0.9216  -19.5268 Cl  0  0  0  0  0  0  0  0  0  0  0  0
   -5.9155    0.6944  -21.3966 C   0  0  0  0  0  0  0  0  0  0  0  0
   -7.7203   -2.2635  -24.5085 C   0  0  0  0  0  0  0  0  0  0  0  0
   -7.7093   -3.7353  -24.2198 C   0  0  0  0  0  0  0  0  0  0  0  0
   -7.2464   -4.2340  -22.8830 C   0  0  0  0  0  0  0  0  0  0  0  0
   -7.2355   -5.7059  -22.5943 N   0  0  0  0  0  0  0  0  0  0  0  0
   -7.6873   -6.6792  -23.6424 C   0  0  0  0  0  0  0  0  0  0  0  0
   -8.1502   -6.1805  -24.9792 C   0  0  0  0  0  0  0  0  0  0  0  0
   -8.6021   -7.1538  -26.0274 C   0  0  0  0  0  0  0  0  0  0  0  0
   -9.0649   -6.6551  -27.3642 C   0  0  0  0  0  0  0  0  0  0  0  0
   -9.0759   -5.1832  -27.6529 C   0  0  0  0  0  0  0  0  0  0  0  0
   -8.6240   -4.2099  -26.6048 C   0  0  0  0  0  0  0  0  0  0  0  0
   -8.1611   -4.7086  -25.2679 C   0  0  0  0  0  0  0  0  0  0  0  0
 17 18  1  0  0  0
 18 15  1  0  0  0
 15 16  2  0  0  0
  4 15  1  0  0  0
  4  5  1  0  0  0
  5  6  1  0  0  0
  6  7  1  0  0  0
  7  8  1  0  0  0
  8  9  2  0  0  0
  9  1  1  0  0  0
  1 19  1  0  0  0
 19 20  1  0  0  0
 20 21  2  0  0  0
 21 22  1  0  0  0
 22 23  2  0  0  0
 23 24  1  0  0  0
 24 25  1  0  0  0
 24 26  2  0  0  0
  1  2  1  0  0  0
  2  3  2  0  0  0
  2 27  1  0  0  0
 27 28  1  0  0  0
 28 29  2  0  0  0
 29 30  1  0  0  0
 30 31  2  0  0  0
 31 32  1  0  0  0
 32 33  2  0  0  0
 33 34  1  0  0  0
 34 35  2  0  0  0
 35 36  1  0  0  0
 36 37  2  0  0  0
  9 10  1  0  0  0
 10 11  2  0  0  0
 11 12  1  0  0  0
 12 13  2  0  0  0
 13  4  1  0  0  0
 13  8  1  0  0  0
 26 20  1  0  0  0
 37 28  1  0  0  0
 37 32  1  0  0  0
  4 14  1  0  0  0
M  CHG 1   4   1
M  END
> <minimizedAffinity>
-8.37208

> <CNNscore>
0.2063204497

> <CNNaffinity>
6.3519620895

> <CNN_VS>
1.3105397224

> <CNNaffinity_variance>
0.2112782747

$$$$



 37 41  0  0  0  0  0  0  0  0999 V2000
   -7.4067   -1.1014  -23.5465 N   0  0  0  0  0  0  0  0  0  0  0  0
   -8.6285   -1.0265  -22.6795 C   0  0  0  0  0  0  0  0  0  0  0  0
   -8.7544    0.0601  -21.6531 O   0  0  0  0  0  0  0  0  0  0  0  0
   -3.8116    1.2106  -20.5919 N   0  0  0  0  0  0  0  0  0  0  0  0
   -4.2058    0.3431  -19.4335 C   0  0  0  0  0  0  0  0  0  0  0  0
   -5.3017   -0.6686  -19.5929 C   0  0  0  0  0  0  0  0  0  0  0  0
   -6.0033   -0.8129  -20.9107 C   0  0  0  0  0  0  0  0  0  0  0  0
   -5.6091    0.0546  -22.0692 C   0  0  0  0  0  0  0  0  0  0  0  0
   -6.3108   -0.0896  -23.3871 C   0  0  0  0  0  0  0  0  0  0  0  0
   -5.9166    0.7778  -24.5455 C   0  0  0  0  0  0  0  0  0  0  0  0
   -4.8207    1.7896  -24.3861 C   0  0  0  0  0  0  0  0  0  0  0  0
   -4.1191    1.9338  -23.0683 C   0  0  0  0  0  0  0  0  0  0  0  0
   -4.5132    1.0663  -21.9098 C   0  0  0  0  0  0  0  0  0  0  0  0
   -4.5308    0.5466  -20.6965 H   0  0  0  0  0  0  0  0  0  0  0  0
   -2.7157    2.2223  -20.4325 C   0  0  0  0  0  0  0  0  0  0  0  0
   -2.9229    3.6325  -20.8999 O   0  0  0  0  0  0  0  0  0  0  0  0
   -0.1279    2.0252  -20.5536 C   0  0  0  0  0  0  0  0  0  0  0  0
   -1.4125    1.8239  -19.8057 C   0  0  0  0  0  0  0  0  0  0  0  0
   -7.2809   -2.1879  -24.5729 C   0  0  0  0  0  0  0  0  0  0  0  0
   -7.2574   -3.6253  -24.1444 C   0  0  0  0  0  0  0  0  0  0  0  0
   -8.0407   -4.6493  -24.9113 C   0  0  0  0  0  0  0  0  0  0  0  0
   -8.0172   -6.0866  -24.4828 C   0  0  0  0  0  0  0  0  0  0  0  0
   -7.2105   -6.4999  -23.2876 C   0  0  0  0  0  0  0  0  0  0  0  0
   -6.4273   -5.4759  -22.5208 C   0  0  0  0  0  0  0  0  0  0  0  0
   -5.6206   -5.8892  -21.3256 Cl  0  0  0  0  0  0  0  0  0  0  0  0
   -6.4508   -4.0386  -22.9493 C   0  0  0  0  0  0  0  0  0  0  0  0
   -9.7244   -2.0382  -22.8389 C   0  0  0  0  0  0  0  0  0  0  0  0
  -11.1568   -1.5940  -22.8687 C   0  0  0  0  0  0  0  0  0  0  0  0
  -12.2462   -2.5480  -22.4775 C   0  0  0  0  0  0  0  0  0  0  0  0
  -13.6786   -2.1037  -22.5073 N   0  0  0  0  0  0  0  0  0  0  0  0
  -14.0216   -0.7054  -22.9283 C   0  0  0  0  0  0  0  0  0  0  0  0
  -12.9321    0.2486  -23.3195 C   0  0  0  0  0  0  0  0  0  0  0  0
  -13.2751    1.6469  -23.7404 C   0  0  0  0  0  0  0  0  0  0  0  0
  -12.1856    2.6009  -24.1316 C   0  0  0  0  0  0  0  0  0  0  0  0
  -10.7533    2.1566  -24.1018 C   0  0  0  0  0  0  0  0  0  0  0  0
  -10.4103    0.7583  -23.6808 C   0  0  0  0  0  0  0  0  0  0  0  0
  -11.4997   -0.1957  -23.2896 C   0  0  0  0  0  0  0  0  0  0  0  0
 17 18  1  0  0  0
 18 15  1  0  0  0
 15 16  2  0  0  0
  4 15  1  0  0  0
  4  5  1  0  0  0
  5  6  1  0  0  0
  6  7  1  0  0  0
  7  8  1  0  0  0
  8  9  2  0  0  0
  9  1  1  0  0  0
  1 19  1  0  0  0
 19 20  1  0  0  0
 20 21  2  0  0  0
 21 22  1  0  0  0
 22 23  2  0  0  0
 23 24  1  0  0  0
 24 25  1  0  0  0
 24 26  2  0  0  0
  1  2  1  0  0  0
  2  3  2  0  0  0
  2 27  1  0  0  0
 27 28  1  0  0  0
 28 29  2  0  0  0
 29 30  1  0  0  0
 30 31  2  0  0  0
 31 32  1  0  0  0
 32 33  2  0  0  0
 33 34  1  0  0  0
 34 35  2  0  0  0
 35 36  1  0  0  0
 36 37  2  0  0  0
  9 10  1  0  0  0
 10 11  2  0  0  0
 11 12  1  0  0  0
 12 13  2  0  0  0
 13  4  1  0  0  0
 13  8  1  0  0  0
 26 20  1  0  0  0
 37 28  1  0  0  0
 37 32  1  0  0  0
  4 14  1  0  0  0
M  CHG 1   4   1
M  END
> <minimizedAffinity>
-7.48279

> <CNNscore>
0.2024173886

> <CNNaffinity>
6.2720718384

> <CNN_VS>
1.2695764303

> <CNNaffinity_variance>
0.2650877535

$$$$



 37 41  0  0  0  0  0  0  0  0999 V2000
   -8.8654   -1.4280  -24.2608 N   0  0  0  0  0  0  0  0  0  0  0  0
   -8.8614   -2.6856  -25.0784 C   0  0  0  0  0  0  0  0  0  0  0  0
  -10.1563   -3.2776  -25.5501 O   0  0  0  0  0  0  0  0  0  0  0  0
  -11.6937    2.8923  -23.6812 N   0  0  0  0  0  0  0  0  0  0  0  0
  -10.5099    3.7212  -24.0829 C   0  0  0  0  0  0  0  0  0  0  0  0
   -9.2109    3.0556  -24.4287 C   0  0  0  0  0  0  0  0  0  0  0  0
   -9.0957    1.5611  -24.3727 C   0  0  0  0  0  0  0  0  0  0  0  0
  -10.2795    0.7322  -23.9710 C   0  0  0  0  0  0  0  0  0  0  0  0
  -10.1644   -0.7624  -23.9150 C   0  0  0  0  0  0  0  0  0  0  0  0
  -11.3482   -1.5913  -23.5132 C   0  0  0  0  0  0  0  0  0  0  0  0
  -12.6472   -0.9257  -23.1674 C   0  0  0  0  0  0  0  0  0  0  0  0
  -12.7624    0.5688  -23.2234 C   0  0  0  0  0  0  0  0  0  0  0  0
  -11.5785    1.3978  -23.6252 C   0  0  0  0  0  0  0  0  0  0  0  0
  -10.8411    2.4554  -23.9081 H   0  0  0  0  0  0  0  0  0  0  0  0
  -12.9927    3.5578  -23.3354 C   0  0  0  0  0  0  0  0  0  0  0  0
  -13.6380    3.2983  -22.0064 O   0  0  0  0  0  0  0  0  0  0  0  0
  -13.6462    5.9624  -24.0708 C   0  0  0  0  0  0  0  0  0  0  0  0
  -13.6465    4.4830  -24.3186 C   0  0  0  0  0  0  0  0  0  0  0  0
   -7.5704   -0.8360  -23.7890 C   0  0  0  0  0  0  0  0  0  0  0  0
   -7.2327   -0.8390  -22.3275 C   0  0  0  0  0  0  0  0  0  0  0  0
   -8.1465   -1.5141  -21.3480 C   0  0  0  0  0  0  0  0  0  0  0  0
   -7.8089   -1.5171  -19.8865 C   0  0  0  0  0  0  0  0  0  0  0  0
   -6.5574   -0.8450  -19.4045 C   0  0  0  0  0  0  0  0  0  0  0  0
   -5.6437   -0.1700  -20.3840 C   0  0  0  0  0  0  0  0  0  0  0  0
   -4.3923    0.5021  -19.9020 Cl  0  0  0  0  0  0  0  0  0  0  0  0
   -5.9814   -0.1670  -21.8455 C   0  0  0  0  0  0  0  0  0  0  0  0
   -7.5623   -3.3512  -25.4241 C   0  0  0  0  0  0  0  0  0  0  0  0
   -7.1150   -4.5638  -24.6630 C   0  0  0  0  0  0  0  0  0  0  0  0
   -7.4904   -4.7241  -23.2196 C   0  0  0  0  0  0  0  0  0  0  0  0
   -7.0431   -5.9367  -22.4584 N   0  0  0  0  0  0  0  0  0  0  0  0
   -6.2203   -6.9891  -23.1407 C   0  0  0  0  0  0  0  0  0  0  0  0
   -5.8449   -6.8289  -24.5841 C   0  0  0  0  0  0  0  0  0  0  0  0
   -5.0221   -7.8813  -25.2663 C   0  0  0  0  0  0  0  0  0  0  0  0
   -4.6466   -7.7211  -26.7097 C   0  0  0  0  0  0  0  0  0  0  0  0
   -5.0940   -6.5085  -27.4708 C   0  0  0  0  0  0  0  0  0  0  0  0
   -5.9168   -5.4560  -26.7886 C   0  0  0  0  0  0  0  0  0  0  0  0
   -6.2922   -5.6162  -25.3452 C   0  0  0  0  0  0  0  0  0  0  0  0
 17 18  1  0  0  0
 18 15  1  0  0  0
 15 16  2  0  0  0
  4 15  1  0  0  0
  4  5  1  0  0  0
  5  6  1  0  0  0
  6  7  1  0  0  0
  7  8  1  0  0  0
  8  9  2  0  0  0
  9  1  1  0  0  0
  1 19  1  0  0  0
 19 20  1  0  0  0
 20 21  2  0  0  0
 21 22  1  0  0  0
 22 23  2  0  0  0
 23 24  1  0  0  0
 24 25  1  0  0  0
 24 26  2  0  0  0
  1  2  1  0  0  0
  2  3  2  0  0  0
  2 27  1  0  0  0
 27 28  1  0  0  0
 28 29  2  0  0  0
 29 30  1  0  0  0
 30 31  2  0  0  0
 31 32  1  0  0  0
 32 33  2  0  0  0
 33 34  1  0  0  0
 34 35  2  0  0  0
 35 36  1  0  0  0
 36 37  2  0  0  0
  9 10  1  0  0  0
 10 11  2  0  0  0
 11 12  1  0  0  0
 12 13  2  0  0  0
 13  4  1  0  0  0
 13  8  1  0  0  0
 26 20  1  0  0  0
 37 28  1  0  0  0
 37 32  1  0  0  0
  4 14  1  0  0  0
M  CHG 1   4   1
M  END
> <minimizedAffinity>
-8.03276

> <CNNscore>
0.1865550876

> <CNNaffinity>
6.3745574951

> <CNN_VS>
1.1892061234

> <CNNaffinity_variance>
0.2801448703

$$$$



 37 41  0  0  0  0  0  0  0  0999 V2000
   -6.3416   -1.5304  -21.9875 N   0  0  0  0  0  0  0  0  0  0  0  0
   -6.2206   -3.0211  -21.8724 C   0  0  0  0  0  0  0  0  0  0  0  0
   -5.2729   -3.6220  -20.8770 O   0  0  0  0  0  0  0  0  0  0  0  0
   -2.3280    1.7104  -21.3645 N   0  0  0  0  0  0  0  0  0  0  0  0
   -1.9745    1.5511  -22.8135 C   0  0  0  0  0  0  0  0  0  0  0  0
   -2.8012    0.6613  -23.6938 C   0  0  0  0  0  0  0  0  0  0  0  0
   -3.9813   -0.0692  -23.1250 C   0  0  0  0  0  0  0  0  0  0  0  0
   -4.3348    0.0900  -21.6760 C   0  0  0  0  0  0  0  0  0  0  0  0
   -5.5150   -0.6406  -21.1072 C   0  0  0  0  0  0  0  0  0  0  0  0
   -5.8684   -0.4814  -19.6582 C   0  0  0  0  0  0  0  0  0  0  0  0
   -5.0418    0.4084  -18.7780 C   0  0  0  0  0  0  0  0  0  0  0  0
   -3.8616    1.1390  -19.3467 C   0  0  0  0  0  0  0  0  0  0  0  0
   -3.5081    0.9798  -20.7958 C   0  0  0  0  0  0  0  0  0  0  0  0
   -2.8705    1.1264  -21.9422 H   0  0  0  0  0  0  0  0  0  0  0  0
   -1.5013    2.6001  -20.4842 C   0  0  0  0  0  0  0  0  0  0  0  0
   -2.0597    3.9060  -20.0017 O   0  0  0  0  0  0  0  0  0  0  0  0
    0.5128    0.9751  -20.7130 C   0  0  0  0  0  0  0  0  0  0  0  0
   -0.1162    2.1841  -20.0864 C   0  0  0  0  0  0  0  0  0  0  0  0
   -7.2893   -0.9295  -22.9829 C   0  0  0  0  0  0  0  0  0  0  0  0
   -8.4785   -1.7131  -23.4539 C   0  0  0  0  0  0  0  0  0  0  0  0
   -8.4286   -2.4346  -24.7681 C   0  0  0  0  0  0  0  0  0  0  0  0
   -9.6178   -3.2182  -25.2391 C   0  0  0  0  0  0  0  0  0  0  0  0
  -10.8569   -3.2802  -24.3959 C   0  0  0  0  0  0  0  0  0  0  0  0
  -10.9068   -2.5587  -23.0818 C   0  0  0  0  0  0  0  0  0  0  0  0
  -12.1458   -2.6208  -22.2386 Cl  0  0  0  0  0  0  0  0  0  0  0  0
   -9.7176   -1.7752  -22.6108 C   0  0  0  0  0  0  0  0  0  0  0  0
   -7.0473   -3.9109  -22.7527 C   0  0  0  0  0  0  0  0  0  0  0  0
   -6.5014   -5.2316  -23.2083 C   0  0  0  0  0  0  0  0  0  0  0  0
   -6.7118   -6.4589  -22.3719 C   0  0  0  0  0  0  0  0  0  0  0  0
   -6.1659   -7.7796  -22.8276 N   0  0  0  0  0  0  0  0  0  0  0  0
   -5.4096   -7.8731  -24.1196 C   0  0  0  0  0  0  0  0  0  0  0  0
   -5.1992   -6.6459  -24.9560 C   0  0  0  0  0  0  0  0  0  0  0  0
   -4.4429   -6.7393  -26.2479 C   0  0  0  0  0  0  0  0  0  0  0  0
   -4.2325   -5.5120  -27.0843 C   0  0  0  0  0  0  0  0  0  0  0  0
   -4.7784   -4.1913  -26.6287 C   0  0  0  0  0  0  0  0  0  0  0  0
   -5.5347   -4.0978  -25.3366 C   0  0  0  0  0  0  0  0  0  0  0  0
   -5.7451   -5.3251  -24.5003 C   0  0  0  0  0  0  0  0  0  0  0  0
 17 18  1  0  0  0
 18 15  1  0  0  0
 15 16  2  0  0  0
  4 15  1  0  0  0
  4  5  1  0  0  0
  5  6  1  0  0  0
  6  7  1  0  0  0
  7  8  1  0  0  0
  8  9  2  0  0  0
  9  1  1  0  0  0
  1 19  1  0  0  0
 19 20  1  0  0  0
 20 21  2  0  0  0
 21 22  1  0  0  0
 22 23  2  0  0  0
 23 24  1  0  0  0
 24 25  1  0  0  0
 24 26  2  0  0  0
  1  2  1  0  0  0
  2  3  2  0  0  0
  2 27  1  0  0  0
 27 28  1  0  0  0
 28 29  2  0  0  0
 29 30  1  0  0  0
 30 31  2  0  0  0
 31 32  1  0  0  0
 32 33  2  0  0  0
 33 34  1  0  0  0
 34 35  2  0  0  0
 35 36  1  0  0  0
 36 37  2  0  0  0
  9 10  1  0  0  0
 10 11  2  0  0  0
 11 12  1  0  0  0
 12 13  2  0  0  0
 13  4  1  0  0  0
 13  8  1  0  0  0
 26 20  1  0  0  0
 37 28  1  0  0  0
 37 32  1  0  0  0
  4 14  1  0  0  0
M  CHG 1   4   1
M  END
> <minimizedAffinity>
-7.69226

> <CNNscore>
0.1560178548

> <CNNaffinity>
5.9532890320

> <CNN_VS>
0.9288193583

> <CNNaffinity_variance>
0.3323132694

$$$$



 37 41  0  0  0  0  0  0  0  0999 V2000
   -9.9680   -2.1728  -23.1486 N   0  0  0  0  0  0  0  0  0  0  0  0
   -9.7235   -3.1133  -24.2914 C   0  0  0  0  0  0  0  0  0  0  0  0
  -10.4239   -2.9007  -25.6007 O   0  0  0  0  0  0  0  0  0  0  0  0
  -10.7913    2.8711  -24.0871 N   0  0  0  0  0  0  0  0  0  0  0  0
   -9.3132    3.0871  -24.2232 C   0  0  0  0  0  0  0  0  0  0  0  0
   -8.3683    1.9340  -24.0567 C   0  0  0  0  0  0  0  0  0  0  0  0
   -8.9015    0.5651  -23.7540 C   0  0  0  0  0  0  0  0  0  0  0  0
  -10.3796    0.3492  -23.6179 C   0  0  0  0  0  0  0  0  0  0  0  0
  -10.9129   -1.0198  -23.3152 C   0  0  0  0  0  0  0  0  0  0  0  0
  -12.3910   -1.2357  -23.1791 C   0  0  0  0  0  0  0  0  0  0  0  0
  -13.3358   -0.0827  -23.3457 C   0  0  0  0  0  0  0  0  0  0  0  0
  -12.8026    1.2862  -23.6483 C   0  0  0  0  0  0  0  0  0  0  0  0
  -11.3245    1.5022  -23.7845 C   0  0  0  0  0  0  0  0  0  0  0  0
  -10.1711    2.1144  -23.9778 H   0  0  0  0  0  0  0  0  0  0  0  0
  -11.7362    4.0241  -24.2537 C   0  0  0  0  0  0  0  0  0  0  0  0
  -12.2588    4.3748  -25.6152 O   0  0  0  0  0  0  0  0  0  0  0  0
  -13.6076    5.1504  -22.8468 C   0  0  0  0  0  0  0  0  0  0  0  0
  -12.1584    4.8265  -23.0587 C   0  0  0  0  0  0  0  0  0  0  0  0
   -9.2676   -2.3854  -21.8394 C   0  0  0  0  0  0  0  0  0  0  0  0
   -7.8940   -1.8227  -21.6236 C   0  0  0  0  0  0  0  0  0  0  0  0
   -6.8953   -1.8320  -22.7428 C   0  0  0  0  0  0  0  0  0  0  0  0
   -5.5217   -1.2693  -22.5270 C   0  0  0  0  0  0  0  0  0  0  0  0
   -5.1468   -0.6973  -21.1920 C   0  0  0  0  0  0  0  0  0  0  0  0
   -6.1454   -0.6879  -20.0728 C   0  0  0  0  0  0  0  0  0  0  0  0
   -5.7705   -0.1159  -18.7378 Cl  0  0  0  0  0  0  0  0  0  0  0  0
   -7.5190   -1.2506  -20.2886 C   0  0  0  0  0  0  0  0  0  0  0  0
   -8.7786   -4.2663  -24.1249 C   0  0  0  0  0  0  0  0  0  0  0  0
   -8.1122   -4.8693  -25.3257 C   0  0  0  0  0  0  0  0  0  0  0  0
   -8.5426   -4.4648  -26.7045 C   0  0  0  0  0  0  0  0  0  0  0  0
   -7.8761   -5.0678  -27.9054 N   0  0  0  0  0  0  0  0  0  0  0  0
   -6.7792   -6.0754  -27.7275 C   0  0  0  0  0  0  0  0  0  0  0  0
   -6.3488   -6.4799  -26.3487 C   0  0  0  0  0  0  0  0  0  0  0  0
   -5.2519   -7.4874  -26.1708 C   0  0  0  0  0  0  0  0  0  0  0  0
   -4.8215   -7.8920  -24.7920 C   0  0  0  0  0  0  0  0  0  0  0  0
   -5.4879   -7.2889  -23.5911 C   0  0  0  0  0  0  0  0  0  0  0  0
   -6.5849   -6.2813  -23.7690 C   0  0  0  0  0  0  0  0  0  0  0  0
   -7.0153   -5.8768  -25.1478 C   0  0  0  0  0  0  0  0  0  0  0  0
 17 18  1  0  0  0
 18 15  1  0  0  0
 15 16  2  0  0  0
  4 15  1  0  0  0
  4  5  1  0  0  0
  5  6  1  0  0  0
  6  7  1  0  0  0
  7  8  1  0  0  0
  8  9  2  0  0  0
  9  1  1  0  0  0
  1 19  1  0  0  0
 19 20  1  0  0  0
 20 21  2  0  0  0
 21 22  1  0  0  0
 22 23  2  0  0  0
 23 24  1  0  0  0
 24 25  1  0  0  0
 24 26  2  0  0  0
  1  2  1  0  0  0
  2  3  2  0  0  0
  2 27  1  0  0  0
 27 28  1  0  0  0
 28 29  2  0  0  0
 29 30  1  0  0  0
 30 31  2  0  0  0
 31 32  1  0  0  0
 32 33  2  0  0  0
 33 34  1  0  0  0
 34 35  2  0  0  0
 35 36  1  0  0  0
 36 37  2  0  0  0
  9 10  1  0  0  0
 10 11  2  0  0  0
 11 12  1  0  0  0
 12 13  2  0  0  0
 13  4  1  0  0  0
 13  8  1  0  0  0
 26 20  1  0  0  0
 37 28  1  0  0  0
 37 32  1  0  0  0
  4 14  1  0  0  0
M  CHG 1   4   1
M  END
> <minimizedAffinity>
-8.48198

> <CNNscore>
0.1276148111

> <CNNaffinity>
5.9297485352

> <CNN_VS>
0.7567237616

> <CNNaffinity_variance>
0.8771967888

$$$$
