


 42 47  0  0  0  0  0  0  0  0999 V2000
   -7.2418   -1.2772  -23.4428 N   0  0  0  0  0  0  0  0  0  0  0  0
   -7.6459    0.1634  -23.5496 C   0  0  0  0  0  0  0  0  0  0  0  0
   -9.0972    0.5401  -23.5106 C   0  0  0  0  0  0  0  0  0  0  0  0
  -10.5018    1.0660  -23.4871 C   0  0  0  0  0  0  0  0  0  0  0  0
  -11.6448    0.6640  -23.3949 O   0  0  0  0  0  0  0  0  0  0  0  0
  -10.4404    2.5587  -23.6215 N   0  0  0  0  0  0  0  0  0  0  0  0
   -8.9977    2.9554  -23.7282 C   0  0  0  0  0  0  0  0  0  0  0  0
   -8.1676    1.7079  -23.6596 C   0  0  0  0  0  0  0  0  0  0  0  0
  -10.1446   -0.5238  -23.3649 C   0  0  0  0  0  0  0  0  0  0  0  0
  -11.5960   -0.1470  -23.3259 C   0  0  0  0  0  0  0  0  0  0  0  0
  -12.6433   -1.2109  -23.1803 C   0  0  0  0  0  0  0  0  0  0  0  0
  -14.0948   -0.8342  -23.1413 Cl  0  0  0  0  0  0  0  0  0  0  0  0
  -12.2392   -2.6515  -23.0735 C   0  0  0  0  0  0  0  0  0  0  0  0
  -10.7879   -3.0283  -23.1125 C   0  0  0  0  0  0  0  0  0  0  0  0
   -9.7406   -1.9644  -23.2582 C   0  0  0  0  0  0  0  0  0  0  0  0
   -8.2891   -2.3411  -23.2971 C   0  0  0  0  0  0  0  0  0  0  0  0
   -7.8850   -3.7817  -23.1904 O   0  0  0  0  0  0  0  0  0  0  0  0
  -11.6152    3.4909  -23.6452 C   0  0  0  0  0  0  0  0  0  0  0  0
  -12.5058    3.6059  -22.4437 C   0  0  0  0  0  0  0  0  0  0  0  0
  -13.6807    4.5381  -22.4674 N   0  0  0  0  0  0  0  0  0  0  0  0
  -13.9650    5.3554  -23.6926 C   0  0  0  0  0  0  0  0  0  0  0  0
  -13.0744    5.2404  -24.8941 C   0  0  0  0  0  0  0  0  0  0  0  0
  -13.3588    6.0578  -26.1194 C   0  0  0  0  0  0  0  0  0  0  0  0
  -12.4681    5.9427  -27.3209 C   0  0  0  0  0  0  0  0  0  0  0  0
  -11.2933    5.0105  -27.2972 C   0  0  0  0  0  0  0  0  0  0  0  0
  -11.0090    4.1932  -26.0720 C   0  0  0  0  0  0  0  0  0  0  0  0
  -11.8995    4.3082  -24.8705 C   0  0  0  0  0  0  0  0  0  0  0  0
   -5.7903   -1.6539  -23.4818 C   0  0  0  0  0  0  0  0  0  0  0  0
   -5.0622   -1.6992  -24.7924 C   0  0  0  0  0  0  0  0  0  0  0  0
   -5.9986   -3.6932  -26.1697 C   0  0  0  0  0  0  0  0  0  0  0  0
   -4.8499   -3.0114  -25.4874 N   0  0  0  0  0  0  0  0  0  0  0  0
   -3.9243   -3.4400  -25.4961 H   0  0  0  0  0  0  0  0  0  0  0  0
   -4.0687   -2.5477  -25.0235 H   0  0  0  0  0  0  0  0  0  0  0  0
   -6.6707    1.6401  -23.7280 C   0  0  0  0  0  0  0  0  0  0  0  0
   -5.8402    2.3379  -22.6922 O   0  0  0  0  0  0  0  0  0  0  0  0
   -4.8325    1.5654  -21.8936 C   0  0  0  0  0  0  0  0  0  0  0  0
   -5.2703    0.7767  -20.6952 C   0  0  0  0  0  0  0  0  0  0  0  0
   -4.6490    0.4149  -19.3787 C   0  0  0  0  0  0  0  0  0  0  0  0
   -5.8896   -0.3387  -19.0003 S   0  0  0  0  0  0  0  0  0  0  0  0
   -7.1302   -1.0923  -18.6220 O   0  0  0  0  0  0  0  0  0  0  0  0
   -5.2684   -0.7006  -17.6839 O   0  0  0  0  0  0  0  0  0  0  0  0
   -6.5109    0.0231  -20.3168 C   0  0  0  0  0  0  0  0  0  0  0  0
 30 31  1  0  0  0
 31 29  1  0  0  0
 29 28  1  0  0  0
 28  1  1  0  0  0
  1  2  1  0  0  0
  3  2  1  0  0  0
  3  4  1  0  0  0
  4  5  2  0  0  0
  4  6  1  0  0  0
  6 18  1  0  0  0
 18 19  2  0  0  0
 19 20  1  0  0  0
 20 21  2  0  0  0
 21 22  1  0  0  0
 22 23  2  0  0  0
 23 24  1  0  0  0
 24 25  2  0  0  0
 25 26  1  0  0  0
 26 27  2  0  0  0
  6  7  1  0  0  0
  7  8  1  0  0  0
  8 34  1  0  0  0
 34 35  1  0  0  0
 35 36  1  0  0  0
 36 37  1  0  0  0
 37 38  1  0  0  0
 38 39  1  0  0  0
 39 40  2  0  0  0
 39 41  2  0  0  0
 39 42  1  0  0  0
  3  9  1  0  0  0
  9 10  2  0  0  0
 10 11  1  0  0  0
 11 12  1  0  0  0
 11 13  2  0  0  0
 13 14  1  0  0  0
 14 15  2  0  0  0
 15 16  1  0  0  0
 16 17  2  0  0  0
 16  1  1  0  0  0
  8  3  1  0  0  0
 42 37  1  0  0  0
 15  9  1  0  0  0
 27 18  1  0  0  0
 27 22  1  0  0  0
 31 32  1  0  0  0
 31 33  1  0  0  0
M  CHG 1  31   1
M  END
> <minimizedAffinity>
-8.11337

> <CNNscore>
0.8627087474

> <CNNaffinity>
7.4163069725

> <CNN_VS>
6.3981127739

> <CNNaffinity_variance>
0.0117296809

$$$$



 42 47  0  0  0  0  0  0  0  0999 V2000
   -8.3934   -5.6617  -24.4952 N   0  0  0  0  0  0  0  0  0  0  0  0
   -7.3432   -5.2984  -23.4876 C   0  0  0  0  0  0  0  0  0  0  0  0
   -7.3890   -3.9637  -22.8046 C   0  0  0  0  0  0  0  0  0  0  0  0
   -7.3050   -2.6730  -22.0450 C   0  0  0  0  0  0  0  0  0  0  0  0
   -7.8969   -1.6177  -21.9347 O   0  0  0  0  0  0  0  0  0  0  0  0
   -6.1026   -2.7389  -21.1506 N   0  0  0  0  0  0  0  0  0  0  0  0
   -5.4434   -4.0704  -21.3575 C   0  0  0  0  0  0  0  0  0  0  0  0
   -6.2385   -4.8273  -22.3798 C   0  0  0  0  0  0  0  0  0  0  0  0
   -8.4849   -2.9923  -23.1292 C   0  0  0  0  0  0  0  0  0  0  0  0
   -8.5307   -1.6576  -22.4463 C   0  0  0  0  0  0  0  0  0  0  0  0
   -9.6266   -0.6862  -22.7709 C   0  0  0  0  0  0  0  0  0  0  0  0
   -9.6724    0.6486  -22.0879 Cl  0  0  0  0  0  0  0  0  0  0  0  0
  -10.6767   -1.0495  -23.7785 C   0  0  0  0  0  0  0  0  0  0  0  0
  -10.6309   -2.3842  -24.4615 C   0  0  0  0  0  0  0  0  0  0  0  0
   -9.5350   -3.3556  -24.1368 C   0  0  0  0  0  0  0  0  0  0  0  0
   -9.4892   -4.6903  -24.8198 C   0  0  0  0  0  0  0  0  0  0  0  0
  -10.5394   -5.0536  -25.8274 O   0  0  0  0  0  0  0  0  0  0  0  0
   -5.6405   -1.6624  -20.2139 C   0  0  0  0  0  0  0  0  0  0  0  0
   -6.0033   -1.7268  -18.7598 C   0  0  0  0  0  0  0  0  0  0  0  0
   -5.5412   -0.6503  -17.8231 N   0  0  0  0  0  0  0  0  0  0  0  0
   -4.7162    0.4907  -18.3403 C   0  0  0  0  0  0  0  0  0  0  0  0
   -4.3534    0.5551  -19.7944 C   0  0  0  0  0  0  0  0  0  0  0  0
   -3.5283    1.6961  -20.3116 C   0  0  0  0  0  0  0  0  0  0  0  0
   -3.1655    1.7605  -21.7657 C   0  0  0  0  0  0  0  0  0  0  0  0
   -3.6276    0.6839  -22.7024 C   0  0  0  0  0  0  0  0  0  0  0  0
   -4.4526   -0.4570  -22.1852 C   0  0  0  0  0  0  0  0  0  0  0  0
   -4.8155   -0.5214  -20.7311 C   0  0  0  0  0  0  0  0  0  0  0  0
   -8.3476   -6.9964  -25.1782 C   0  0  0  0  0  0  0  0  0  0  0  0
   -9.3700   -7.3412  -26.2202 C   0  0  0  0  0  0  0  0  0  0  0  0
   -8.0095   -6.2996  -28.1732 C   0  0  0  0  0  0  0  0  0  0  0  0
   -9.0000   -7.3092  -27.6735 N   0  0  0  0  0  0  0  0  0  0  0  0
   -9.4219   -7.9740  -28.3219 H   0  0  0  0  0  0  0  0  0  0  0  0
   -9.6735   -7.9957  -27.3337 H   0  0  0  0  0  0  0  0  0  0  0  0
   -5.9361   -6.2058  -22.8879 C   0  0  0  0  0  0  0  0  0  0  0  0
   -4.5421   -6.7513  -22.7925 O   0  0  0  0  0  0  0  0  0  0  0  0
   -3.8593   -7.2832  -24.0176 C   0  0  0  0  0  0  0  0  0  0  0  0
   -2.3674   -7.1923  -24.1438 C   0  0  0  0  0  0  0  0  0  0  0  0
   -1.3802   -7.4259  -25.2489 C   0  0  0  0  0  0  0  0  0  0  0  0
   -0.2574   -7.0638  -24.3224 S   0  0  0  0  0  0  0  0  0  0  0  0
    0.8653   -6.7017  -23.3960 O   0  0  0  0  0  0  0  0  0  0  0  0
    0.7297   -7.2973  -25.4274 O   0  0  0  0  0  0  0  0  0  0  0  0
   -1.2446   -6.8302  -23.2174 C   0  0  0  0  0  0  0  0  0  0  0  0
 30 31  1  0  0  0
 31 29  1  0  0  0
 29 28  1  0  0  0
 28  1  1  0  0  0
  1  2  1  0  0  0
  3  2  1  0  0  0
  3  4  1  0  0  0
  4  5  2  0  0  0
  4  6  1  0  0  0
  6 18  1  0  0  0
 18 19  2  0  0  0
 19 20  1  0  0  0
 20 21  2  0  0  0
 21 22  1  0  0  0
 22 23  2  0  0  0
 23 24  1  0  0  0
 24 25  2  0  0  0
 25 26  1  0  0  0
 26 27  2  0  0  0
  6  7  1  0  0  0
  7  8  1  0  0  0
  8 34  1  0  0  0
 34 35  1  0  0  0
 35 36  1  0  0  0
 36 37  1  0  0  0
 37 38  1  0  0  0
 38 39  1  0  0  0
 39 40  2  0  0  0
 39 41  2  0  0  0
 39 42  1  0  0  0
  3  9  1  0  0  0
  9 10  2  0  0  0
 10 11  1  0  0  0
 11 12  1  0  0  0
 11 13  2  0  0  0
 13 14  1  0  0  0
 14 15  2  0  0  0
 15 16  1  0  0  0
 16 17  2  0  0  0
 16  1  1  0  0  0
  8  3  1  0  0  0
 42 37  1  0  0  0
 15  9  1  0  0  0
 27 18  1  0  0  0
 27 22  1  0  0  0
 31 32  1  0  0  0
 31 33  1  0  0  0
M  CHG 1  31   1
M  END
> <minimizedAffinity>
-8.39720

> <CNNscore>
0.4821012914

> <CNNaffinity>
6.7671117783

> <CNN_VS>
3.2624332905

> <CNNaffinity_variance>
0.4802504480

$$$$



 42 47  0  0  0  0  0  0  0  0999 V2000
   -8.2742    2.4352  -23.8168 N   0  0  0  0  0  0  0  0  0  0  0  0
   -7.4486    1.1839  -23.8675 C   0  0  0  0  0  0  0  0  0  0  0  0
   -8.1107   -0.1568  -23.7492 C   0  0  0  0  0  0  0  0  0  0  0  0
   -8.6296   -1.5603  -23.6449 C   0  0  0  0  0  0  0  0  0  0  0  0
   -9.6793   -2.1569  -23.5080 O   0  0  0  0  0  0  0  0  0  0  0  0
   -7.4609   -2.4953  -23.7443 N   0  0  0  0  0  0  0  0  0  0  0  0
   -6.2196   -1.6696  -23.9101 C   0  0  0  0  0  0  0  0  0  0  0  0
   -6.6213   -0.2244  -23.9131 C   0  0  0  0  0  0  0  0  0  0  0  0
   -9.5986   -0.2462  -23.5803 C   0  0  0  0  0  0  0  0  0  0  0  0
  -10.2607   -1.5869  -23.4620 C   0  0  0  0  0  0  0  0  0  0  0  0
  -11.7485   -1.6763  -23.2931 C   0  0  0  0  0  0  0  0  0  0  0  0
  -12.4107   -3.0171  -23.1748 Cl  0  0  0  0  0  0  0  0  0  0  0  0
  -12.5740   -0.4250  -23.2424 C   0  0  0  0  0  0  0  0  0  0  0  0
  -11.9119    0.9157  -23.3607 C   0  0  0  0  0  0  0  0  0  0  0  0
  -10.4241    1.0051  -23.5296 C   0  0  0  0  0  0  0  0  0  0  0  0
   -9.7619    2.3458  -23.6479 C   0  0  0  0  0  0  0  0  0  0  0  0
  -10.5875    3.5972  -23.5972 O   0  0  0  0  0  0  0  0  0  0  0  0
   -7.5226   -3.9929  -23.6878 C   0  0  0  0  0  0  0  0  0  0  0  0
   -7.0203   -4.7191  -22.4752 C   0  0  0  0  0  0  0  0  0  0  0  0
   -7.0821   -6.2168  -22.4188 N   0  0  0  0  0  0  0  0  0  0  0  0
   -7.6461   -6.9883  -23.5749 C   0  0  0  0  0  0  0  0  0  0  0  0
   -8.1484   -6.2621  -24.7875 C   0  0  0  0  0  0  0  0  0  0  0  0
   -8.7124   -7.0336  -25.9437 C   0  0  0  0  0  0  0  0  0  0  0  0
   -9.2147   -6.3074  -27.1563 C   0  0  0  0  0  0  0  0  0  0  0  0
   -9.1529   -4.8097  -27.2127 C   0  0  0  0  0  0  0  0  0  0  0  0
   -8.5889   -4.0382  -26.0566 C   0  0  0  0  0  0  0  0  0  0  0  0
   -8.0866   -4.7644  -24.8440 C   0  0  0  0  0  0  0  0  0  0  0  0
   -7.6119    3.7760  -23.9350 C   0  0  0  0  0  0  0  0  0  0  0  0
   -7.1018    4.4713  -22.7078 C   0  0  0  0  0  0  0  0  0  0  0  0
   -4.5241    4.7806  -22.6087 C   0  0  0  0  0  0  0  0  0  0  0  0
   -5.7694    4.0941  -22.1312 N   0  0  0  0  0  0  0  0  0  0  0  0
   -5.7102    3.3708  -21.4145 H   0  0  0  0  0  0  0  0  0  0  0  0
   -6.6162    3.6273  -21.8065 H   0  0  0  0  0  0  0  0  0  0  0  0
   -5.6958    0.9475  -24.0552 C   0  0  0  0  0  0  0  0  0  0  0  0
   -4.7440    1.2901  -22.9478 O   0  0  0  0  0  0  0  0  0  0  0  0
   -4.1062    0.1974  -22.1420 C   0  0  0  0  0  0  0  0  0  0  0  0
   -4.6728   -0.1764  -20.8044 C   0  0  0  0  0  0  0  0  0  0  0  0
   -5.3445   -1.3929  -20.2394 C   0  0  0  0  0  0  0  0  0  0  0  0
   -5.4740   -0.7052  -18.9126 S   0  0  0  0  0  0  0  0  0  0  0  0
   -5.6035   -0.0175  -17.5859 O   0  0  0  0  0  0  0  0  0  0  0  0
   -6.1457   -1.9215  -18.3477 O   0  0  0  0  0  0  0  0  0  0  0  0
   -4.8023    0.5113  -19.4775 C   0  0  0  0  0  0  0  0  0  0  0  0
 30 31  1  0  0  0
 31 29  1  0  0  0
 29 28  1  0  0  0
 28  1  1  0  0  0
  1  2  1  0  0  0
  3  2  1  0  0  0
  3  4  1  0  0  0
  4  5  2  0  0  0
  4  6  1  0  0  0
  6 18  1  0  0  0
 18 19  2  0  0  0
 19 20  1  0  0  0
 20 21  2  0  0  0
 21 22  1  0  0  0
 22 23  2  0  0  0
 23 24  1  0  0  0
 24 25  2  0  0  0
 25 26  1  0  0  0
 26 27  2  0  0  0
  6  7  1  0  0  0
  7  8  1  0  0  0
  8 34  1  0  0  0
 34 35  1  0  0  0
 35 36  1  0  0  0
 36 37  1  0  0  0
 37 38  1  0  0  0
 38 39  1  0  0  0
 39 40  2  0  0  0
 39 41  2  0  0  0
 39 42  1  0  0  0
  3  9  1  0  0  0
  9 10  2  0  0  0
 10 11  1  0  0  0
 11 12  1  0  0  0
 11 13  2  0  0  0
 13 14  1  0  0  0
 14 15  2  0  0  0
 15 16  1  0  0  0
 16 17  2  0  0  0
 16  1  1  0  0  0
  8  3  1  0  0  0
 42 37  1  0  0  0
 15  9  1  0  0  0
 27 18  1  0  0  0
 27 22  1  0  0  0
 31 32  1  0  0  0
 31 33  1  0  0  0
M  CHG 1  31   1
M  END
> <minimizedAffinity>
-8.13838

> <CNNscore>
0.4722476006

> <CNNaffinity>
6.9532027245

> <CNN_VS>
3.2836332321

> <CNNaffinity_variance>
0.0915623829

$$$$



 42 47  0  0  0  0  0  0  0  0999 V2000
   -7.3333   -2.3482  -23.4724 N   0  0  0  0  0  0  0  0  0  0  0  0
   -6.9305   -0.9228  -23.7090 C   0  0  0  0  0  0  0  0  0  0  0  0
   -7.9795    0.1418  -23.8364 C   0  0  0  0  0  0  0  0  0  0  0  0
   -8.9108    1.3083  -23.9840 C   0  0  0  0  0  0  0  0  0  0  0  0
  -10.1003    1.5561  -23.9791 O   0  0  0  0  0  0  0  0  0  0  0  0
   -8.0816    2.5384  -24.2058 N   0  0  0  0  0  0  0  0  0  0  0  0
   -6.6377    2.1321  -24.1953 C   0  0  0  0  0  0  0  0  0  0  0  0
   -6.5746    0.6509  -23.9670 C   0  0  0  0  0  0  0  0  0  0  0  0
   -9.4314   -0.2191  -23.7272 C   0  0  0  0  0  0  0  0  0  0  0  0
  -10.4804    0.8455  -23.8546 C   0  0  0  0  0  0  0  0  0  0  0  0
  -11.9322    0.4846  -23.7454 C   0  0  0  0  0  0  0  0  0  0  0  0
  -12.9813    1.5492  -23.8728 Cl  0  0  0  0  0  0  0  0  0  0  0  0
  -12.3350   -0.9408  -23.5088 C   0  0  0  0  0  0  0  0  0  0  0  0
  -11.2860   -2.0053  -23.3814 C   0  0  0  0  0  0  0  0  0  0  0  0
   -9.8342   -1.6445  -23.4906 C   0  0  0  0  0  0  0  0  0  0  0  0
   -8.7851   -2.7090  -23.3632 C   0  0  0  0  0  0  0  0  0  0  0  0
   -9.1879   -4.1344  -23.1266 O   0  0  0  0  0  0  0  0  0  0  0  0
   -8.6044    3.9304  -24.4034 C   0  0  0  0  0  0  0  0  0  0  0  0
   -8.4884    4.9389  -23.2991 C   0  0  0  0  0  0  0  0  0  0  0  0
   -9.0113    6.3309  -23.4967 N   0  0  0  0  0  0  0  0  0  0  0  0
   -9.6501    6.7143  -24.7986 C   0  0  0  0  0  0  0  0  0  0  0  0
   -9.7661    5.7057  -25.9028 C   0  0  0  0  0  0  0  0  0  0  0  0
  -10.4050    6.0892  -27.2048 C   0  0  0  0  0  0  0  0  0  0  0  0
  -10.5209    5.0806  -28.3090 C   0  0  0  0  0  0  0  0  0  0  0  0
   -9.9980    3.6886  -28.1114 C   0  0  0  0  0  0  0  0  0  0  0  0
   -9.3592    3.3052  -26.8095 C   0  0  0  0  0  0  0  0  0  0  0  0
   -9.2432    4.3138  -25.7052 C   0  0  0  0  0  0  0  0  0  0  0  0
   -6.2841   -3.4127  -23.3450 C   0  0  0  0  0  0  0  0  0  0  0  0
   -6.4624   -4.5269  -22.3566 C   0  0  0  0  0  0  0  0  0  0  0  0
   -6.1948   -7.0341  -21.7304 C   0  0  0  0  0  0  0  0  0  0  0  0
   -5.8967   -5.8853  -22.6476 N   0  0  0  0  0  0  0  0  0  0  0  0
   -5.3092   -6.0278  -23.4692 H   0  0  0  0  0  0  0  0  0  0  0  0
   -5.6939   -5.1041  -23.2713 H   0  0  0  0  0  0  0  0  0  0  0  0
   -5.3258   -0.1759  -23.8839 C   0  0  0  0  0  0  0  0  0  0  0  0
   -4.1697    0.2932  -23.0514 O   0  0  0  0  0  0  0  0  0  0  0  0
   -3.8226   -0.4217  -21.7792 C   0  0  0  0  0  0  0  0  0  0  0  0
   -4.7834   -0.4122  -20.6274 C   0  0  0  0  0  0  0  0  0  0  0  0
   -6.1133   -1.0483  -20.3502 C   0  0  0  0  0  0  0  0  0  0  0  0
   -6.1423   -0.3988  -18.9984 S   0  0  0  0  0  0  0  0  0  0  0  0
   -6.1712    0.2507  -17.6466 O   0  0  0  0  0  0  0  0  0  0  0  0
   -7.4721   -1.0349  -18.7212 O   0  0  0  0  0  0  0  0  0  0  0  0
   -4.8123    0.2373  -19.2755 C   0  0  0  0  0  0  0  0  0  0  0  0
 30 31  1  0  0  0
 31 29  1  0  0  0
 29 28  1  0  0  0
 28  1  1  0  0  0
  1  2  1  0  0  0
  3  2  1  0  0  0
  3  4  1  0  0  0
  4  5  2  0  0  0
  4  6  1  0  0  0
  6 18  1  0  0  0
 18 19  2  0  0  0
 19 20  1  0  0  0
 20 21  2  0  0  0
 21 22  1  0  0  0
 22 23  2  0  0  0
 23 24  1  0  0  0
 24 25  2  0  0  0
 25 26  1  0  0  0
 26 27  2  0  0  0
  6  7  1  0  0  0
  7  8  1  0  0  0
  8 34  1  0  0  0
 34 35  1  0  0  0
 35 36  1  0  0  0
 36 37  1  0  0  0
 37 38  1  0  0  0
 38 39  1  0  0  0
 39 40  2  0  0  0
 39 41  2  0  0  0
 39 42  1  0  0  0
  3  9  1  0  0  0
  9 10  2  0  0  0
 10 11  1  0  0  0
 11 12  1  0  0  0
 11 13  2  0  0  0
 13 14  1  0  0  0
 14 15  2  0  0  0
 15 16  1  0  0  0
 16 17  2  0  0  0
 16  1  1  0  0  0
  8  3  1  0  0  0
 42 37  1  0  0  0
 15  9  1  0  0  0
 27 18  1  0  0  0
 27 22  1  0  0  0
 31 32  1  0  0  0
 31 33  1  0  0  0
M  CHG 1  31   1
M  END
> <minimizedAffinity>
-6.64448

> <CNNscore>
0.4126283526

> <CNNaffinity>
6.7111458778

> <CNN_VS>
2.7692091465

> <CNNaffinity_variance>
0.0683750585

$$$$



 42 47  0  0  0  0  0  0  0  0999 V2000
   -8.4218   -5.6228  -24.4066 N   0  0  0  0  0  0  0  0  0  0  0  0
   -7.3689   -5.2625  -23.4009 C   0  0  0  0  0  0  0  0  0  0  0  0
   -7.3915   -3.9156  -22.7411 C   0  0  0  0  0  0  0  0  0  0  0  0
   -7.2855   -2.6139  -22.0034 C   0  0  0  0  0  0  0  0  0  0  0  0
   -7.8573   -1.5456  -21.9138 O   0  0  0  0  0  0  0  0  0  0  0  0
   -6.0882   -2.6876  -21.1029 N   0  0  0  0  0  0  0  0  0  0  0  0
   -5.4542   -4.0348  -21.2840 C   0  0  0  0  0  0  0  0  0  0  0  0
   -6.2597   -4.7938  -22.2965 C   0  0  0  0  0  0  0  0  0  0  0  0
   -8.4671   -2.9290  -23.0871 C   0  0  0  0  0  0  0  0  0  0  0  0
   -8.4897   -1.5821  -22.4273 C   0  0  0  0  0  0  0  0  0  0  0  0
   -9.5653   -0.5955  -22.7733 C   0  0  0  0  0  0  0  0  0  0  0  0
   -9.5879    0.7515  -22.1136 Cl  0  0  0  0  0  0  0  0  0  0  0  0
  -10.6182   -0.9558  -23.7791 C   0  0  0  0  0  0  0  0  0  0  0  0
  -10.5956   -2.3026  -24.4388 C   0  0  0  0  0  0  0  0  0  0  0  0
   -9.5201   -3.2892  -24.0928 C   0  0  0  0  0  0  0  0  0  0  0  0
   -9.4974   -4.6362  -24.7526 C   0  0  0  0  0  0  0  0  0  0  0  0
  -10.5503   -4.9965  -25.7583 O   0  0  0  0  0  0  0  0  0  0  0  0
   -5.6091   -1.6041  -20.1827 C   0  0  0  0  0  0  0  0  0  0  0  0
   -5.9397   -1.6611  -18.7207 C   0  0  0  0  0  0  0  0  0  0  0  0
   -5.4606   -0.5777  -17.8006 N   0  0  0  0  0  0  0  0  0  0  0  0
   -4.6508    0.5627  -18.3425 C   0  0  0  0  0  0  0  0  0  0  0  0
   -4.3201    0.6197  -19.8045 C   0  0  0  0  0  0  0  0  0  0  0  0
   -3.5102    1.7601  -20.3464 C   0  0  0  0  0  0  0  0  0  0  0  0
   -3.1796    1.8170  -21.8084 C   0  0  0  0  0  0  0  0  0  0  0  0
   -3.6587    0.7336  -22.7285 C   0  0  0  0  0  0  0  0  0  0  0  0
   -4.4686   -0.4068  -22.1866 C   0  0  0  0  0  0  0  0  0  0  0  0
   -4.7992   -0.4638  -20.7246 C   0  0  0  0  0  0  0  0  0  0  0  0
   -8.3992   -6.9698  -25.0664 C   0  0  0  0  0  0  0  0  0  0  0  0
   -9.2985   -7.2481  -26.2342 C   0  0  0  0  0  0  0  0  0  0  0  0
   -8.4474   -6.4311  -28.5489 C   0  0  0  0  0  0  0  0  0  0  0  0
   -8.7087   -7.5465  -27.5806 N   0  0  0  0  0  0  0  0  0  0  0  0
   -8.4852   -8.5079  -27.8378 H   0  0  0  0  0  0  0  0  0  0  0  0
   -8.8863   -8.3050  -26.9222 H   0  0  0  0  0  0  0  0  0  0  0  0
   -5.9820   -6.1865  -22.7796 C   0  0  0  0  0  0  0  0  0  0  0  0
   -4.6904   -6.8605  -22.4230 O   0  0  0  0  0  0  0  0  0  0  0  0
   -3.5691   -6.9076  -23.4183 C   0  0  0  0  0  0  0  0  0  0  0  0
   -3.8565   -7.2163  -24.8577 C   0  0  0  0  0  0  0  0  0  0  0  0
   -3.0917   -7.0925  -26.1422 C   0  0  0  0  0  0  0  0  0  0  0  0
   -4.2629   -7.6528  -26.8936 S   0  0  0  0  0  0  0  0  0  0  0  0
   -5.4341   -8.2130  -27.6449 O   0  0  0  0  0  0  0  0  0  0  0  0
   -3.4982   -7.5290  -28.1780 O   0  0  0  0  0  0  0  0  0  0  0  0
   -5.0277   -7.7765  -25.6091 C   0  0  0  0  0  0  0  0  0  0  0  0
 30 31  1  0  0  0
 31 29  1  0  0  0
 29 28  1  0  0  0
 28  1  1  0  0  0
  1  2  1  0  0  0
  3  2  1  0  0  0
  3  4  1  0  0  0
  4  5  2  0  0  0
  4  6  1  0  0  0
  6 18  1  0  0  0
 18 19  2  0  0  0
 19 20  1  0  0  0
 20 21  2  0  0  0
 21 22  1  0  0  0
 22 23  2  0  0  0
 23 24  1  0  0  0
 24 25  2  0  0  0
 25 26  1  0  0  0
 26 27  2  0  0  0
  6  7  1  0  0  0
  7  8  1  0  0  0
  8 34  1  0  0  0
 34 35  1  0  0  0
 35 36  1  0  0  0
 36 37  1  0  0  0
 37 38  1  0  0  0
 38 39  1  0  0  0
 39 40  2  0  0  0
 39 41  2  0  0  0
 39 42  1  0  0  0
  3  9  1  0  0  0
  9 10  2  0  0  0
 10 11  1  0  0  0
 11 12  1  0  0  0
 11 13  2  0  0  0
 13 14  1  0  0  0
 14 15  2  0  0  0
 15 16  1  0  0  0
 16 17  2  0  0  0
 16  1  1  0  0  0
  8  3  1  0  0  0
 42 37  1  0  0  0
 15  9  1  0  0  0
 27 18  1  0  0  0
 27 22  1  0  0  0
 31 32  1  0  0  0
 31 33  1  0  0  0
M  CHG 1  31   1
M  END
> <minimizedAffinity>
-8.63749

> <CNNscore>
0.3673608005

> <CNNaffinity>
6.5073785782

> <CNN_VS>
2.3905558586

> <CNNaffinity_variance>
0.5646020174

$$$$



 42 47  0  0  0  0  0  0  0  0999 V2000
   -5.3857   -6.1277  -23.3353 N   0  0  0  0  0  0  0  0  0  0  0  0
   -5.9522   -4.8509  -22.7888 C   0  0  0  0  0  0  0  0  0  0  0  0
   -6.9577   -4.0745  -23.5864 C   0  0  0  0  0  0  0  0  0  0  0  0
   -7.9654   -3.1952  -24.2656 C   0  0  0  0  0  0  0  0  0  0  0  0
   -8.6074   -3.1386  -25.2957 O   0  0  0  0  0  0  0  0  0  0  0  0
   -8.2465   -2.0300  -23.3637 N   0  0  0  0  0  0  0  0  0  0  0  0
   -7.4125   -2.1892  -22.1272 C   0  0  0  0  0  0  0  0  0  0  0  0
   -6.6160   -3.4528  -22.2648 C   0  0  0  0  0  0  0  0  0  0  0  0
   -7.3967   -4.5751  -24.9306 C   0  0  0  0  0  0  0  0  0  0  0  0
   -8.4023   -3.7988  -25.7283 C   0  0  0  0  0  0  0  0  0  0  0  0
   -8.8412   -4.2993  -27.0724 C   0  0  0  0  0  0  0  0  0  0  0  0
   -9.8468   -3.5230  -27.8701 Cl  0  0  0  0  0  0  0  0  0  0  0  0
   -8.2747   -5.5762  -27.6189 C   0  0  0  0  0  0  0  0  0  0  0  0
   -7.2692   -6.3525  -26.8213 C   0  0  0  0  0  0  0  0  0  0  0  0
   -6.8302   -5.8519  -25.4771 C   0  0  0  0  0  0  0  0  0  0  0  0
   -5.8247   -6.6283  -24.6794 C   0  0  0  0  0  0  0  0  0  0  0  0
   -5.2581   -7.9051  -25.2259 O   0  0  0  0  0  0  0  0  0  0  0  0
   -9.1951   -0.9034  -23.6485 C   0  0  0  0  0  0  0  0  0  0  0  0
   -8.6818    0.3802  -24.2306 C   0  0  0  0  0  0  0  0  0  0  0  0
   -9.6304    1.5068  -24.5153 N   0  0  0  0  0  0  0  0  0  0  0  0
  -11.0922    1.3497  -24.2179 C   0  0  0  0  0  0  0  0  0  0  0  0
  -11.6054    0.0660  -23.6359 C   0  0  0  0  0  0  0  0  0  0  0  0
  -13.0673   -0.0910  -23.3385 C   0  0  0  0  0  0  0  0  0  0  0  0
  -13.5805   -1.3747  -22.7564 C   0  0  0  0  0  0  0  0  0  0  0  0
  -12.6319   -2.5013  -22.4717 C   0  0  0  0  0  0  0  0  0  0  0  0
  -11.1701   -2.3442  -22.7690 C   0  0  0  0  0  0  0  0  0  0  0  0
  -10.6569   -1.0605  -23.3511 C   0  0  0  0  0  0  0  0  0  0  0  0
   -4.3801   -6.9040  -22.5376 C   0  0  0  0  0  0  0  0  0  0  0  0
   -3.1397   -7.4267  -23.1996 C   0  0  0  0  0  0  0  0  0  0  0  0
   -0.6384   -6.7401  -23.0524 C   0  0  0  0  0  0  0  0  0  0  0  0
   -2.0276   -6.4861  -23.5579 N   0  0  0  0  0  0  0  0  0  0  0  0
   -2.2160   -5.6738  -24.1453 H   0  0  0  0  0  0  0  0  0  0  0  0
   -2.9723   -6.3135  -23.9017 H   0  0  0  0  0  0  0  0  0  0  0  0
   -5.6478   -3.9988  -21.2576 C   0  0  0  0  0  0  0  0  0  0  0  0
   -5.2503   -3.1691  -20.0729 O   0  0  0  0  0  0  0  0  0  0  0  0
   -5.8298   -1.7979  -19.8892 C   0  0  0  0  0  0  0  0  0  0  0  0
   -4.9524   -0.5887  -20.0232 C   0  0  0  0  0  0  0  0  0  0  0  0
   -4.2161    0.0676  -21.1534 C   0  0  0  0  0  0  0  0  0  0  0  0
   -3.7114    1.1214  -20.2127 S   0  0  0  0  0  0  0  0  0  0  0  0
   -3.2068    2.1752  -19.2720 O   0  0  0  0  0  0  0  0  0  0  0  0
   -2.9752    1.7777  -21.3428 O   0  0  0  0  0  0  0  0  0  0  0  0
   -4.4477    0.4651  -19.0825 C   0  0  0  0  0  0  0  0  0  0  0  0
 30 31  1  0  0  0
 31 29  1  0  0  0
 29 28  1  0  0  0
 28  1  1  0  0  0
  1  2  1  0  0  0
  3  2  1  0  0  0
  3  4  1  0  0  0
  4  5  2  0  0  0
  4  6  1  0  0  0
  6 18  1  0  0  0
 18 19  2  0  0  0
 19 20  1  0  0  0
 20 21  2  0  0  0
 21 22  1  0  0  0
 22 23  2  0  0  0
 23 24  1  0  0  0
 24 25  2  0  0  0
 25 26  1  0  0  0
 26 27  2  0  0  0
  6  7  1  0  0  0
  7  8  1  0  0  0
  8 34  1  0  0  0
 34 35  1  0  0  0
 35 36  1  0  0  0
 36 37  1  0  0  0
 37 38  1  0  0  0
 38 39  1  0  0  0
 39 40  2  0  0  0
 39 41  2  0  0  0
 39 42  1  0  0  0
  3  9  1  0  0  0
  9 10  2  0  0  0
 10 11  1  0  0  0
 11 12  1  0  0  0
 11 13  2  0  0  0
 13 14  1  0  0  0
 14 15  2  0  0  0
 15 16  1  0  0  0
 16 17  2  0  0  0
 16  1  1  0  0  0
  8  3  1  0  0  0
 42 37  1  0  0  0
 15  9  1  0  0  0
 27 18  1  0  0  0
 27 22  1  0  0  0
 31 32  1  0  0  0
 31 33  1  0  0  0
M  CHG 1  31   1
M  END
> <minimizedAffinity>
-7.99462

> <CNNscore>
0.2507424355

> <CNNaffinity>
6.4534826279

> <CNN_VS>
1.6181619167

> <CNNaffinity_variance>
0.2460297346

$$$$



 42 47  0  0  0  0  0  0  0  0999 V2000
   -9.6397    2.9487  -24.4003 N   0  0  0  0  0  0  0  0  0  0  0  0
   -8.6209    1.8491  -24.4552 C   0  0  0  0  0  0  0  0  0  0  0  0
   -9.0254    0.4362  -24.1553 C   0  0  0  0  0  0  0  0  0  0  0  0
   -9.2803   -1.0164  -23.8818 C   0  0  0  0  0  0  0  0  0  0  0  0
  -10.1906   -1.7597  -23.5732 O   0  0  0  0  0  0  0  0  0  0  0  0
   -7.9853   -1.7542  -24.0509 N   0  0  0  0  0  0  0  0  0  0  0  0
   -6.9300   -0.7575  -24.4289 C   0  0  0  0  0  0  0  0  0  0  0  0
   -7.5728    0.5962  -24.4935 C   0  0  0  0  0  0  0  0  0  0  0  0
  -10.4488    0.1228  -23.8004 C   0  0  0  0  0  0  0  0  0  0  0  0
  -10.8533   -1.2901  -23.5005 C   0  0  0  0  0  0  0  0  0  0  0  0
  -12.2766   -1.6034  -23.1456 C   0  0  0  0  0  0  0  0  0  0  0  0
  -12.6812   -3.0164  -22.8457 Cl  0  0  0  0  0  0  0  0  0  0  0  0
  -13.2954   -0.5039  -23.0907 C   0  0  0  0  0  0  0  0  0  0  0  0
  -12.8909    0.9090  -23.3906 C   0  0  0  0  0  0  0  0  0  0  0  0
  -11.4676    1.2224  -23.7455 C   0  0  0  0  0  0  0  0  0  0  0  0
  -11.0630    2.6354  -24.0454 C   0  0  0  0  0  0  0  0  0  0  0  0
  -12.0818    3.7349  -23.9904 O   0  0  0  0  0  0  0  0  0  0  0  0
   -7.7814   -3.2296  -23.8731 C   0  0  0  0  0  0  0  0  0  0  0  0
   -7.0839   -3.7485  -22.6507 C   0  0  0  0  0  0  0  0  0  0  0  0
   -6.8800   -5.2239  -22.4730 N   0  0  0  0  0  0  0  0  0  0  0  0
   -7.3736   -6.1804  -23.5176 C   0  0  0  0  0  0  0  0  0  0  0  0
   -8.0712   -5.6615  -24.7400 C   0  0  0  0  0  0  0  0  0  0  0  0
   -8.5649   -6.6182  -25.7847 C   0  0  0  0  0  0  0  0  0  0  0  0
   -9.2624   -6.0992  -27.0070 C   0  0  0  0  0  0  0  0  0  0  0  0
   -9.4663   -4.6238  -27.1848 C   0  0  0  0  0  0  0  0  0  0  0  0
   -8.9726   -3.6673  -26.1401 C   0  0  0  0  0  0  0  0  0  0  0  0
   -8.2751   -4.1861  -24.9177 C   0  0  0  0  0  0  0  0  0  0  0  0
   -9.2351    4.3617  -24.7002 C   0  0  0  0  0  0  0  0  0  0  0  0
   -9.3124    5.4076  -23.6278 C   0  0  0  0  0  0  0  0  0  0  0  0
   -6.9081    5.2819  -22.6513 C   0  0  0  0  0  0  0  0  0  0  0  0
   -8.3928    5.3383  -22.4449 N   0  0  0  0  0  0  0  0  0  0  0  0
   -8.7770    5.3294  -21.5000 H   0  0  0  0  0  0  0  0  0  0  0  0
   -9.4024    5.3766  -22.3045 H   0  0  0  0  0  0  0  0  0  0  0  0
   -6.8840    1.8839  -24.8361 C   0  0  0  0  0  0  0  0  0  0  0  0
   -5.6837    2.3242  -24.0517 O   0  0  0  0  0  0  0  0  0  0  0  0
   -4.7626    1.3026  -23.4534 C   0  0  0  0  0  0  0  0  0  0  0  0
   -4.4029    1.3773  -21.9991 C   0  0  0  0  0  0  0  0  0  0  0  0
   -3.3633    2.1053  -21.1996 C   0  0  0  0  0  0  0  0  0  0  0  0
   -3.8943    1.4829  -19.9423 S   0  0  0  0  0  0  0  0  0  0  0  0
   -4.4253    0.8605  -18.6851 O   0  0  0  0  0  0  0  0  0  0  0  0
   -2.8547    2.2108  -19.1428 O   0  0  0  0  0  0  0  0  0  0  0  0
   -4.9340    0.7549  -20.7418 C   0  0  0  0  0  0  0  0  0  0  0  0
 30 31  1  0  0  0
 31 29  1  0  0  0
 29 28  1  0  0  0
 28  1  1  0  0  0
  1  2  1  0  0  0
  3  2  1  0  0  0
  3  4  1  0  0  0
  4  5  2  0  0  0
  4  6  1  0  0  0
  6 18  1  0  0  0
 18 19  2  0  0  0
 19 20  1  0  0  0
 20 21  2  0  0  0
 21 22  1  0  0  0
 22 23  2  0  0  0
 23 24  1  0  0  0
 24 25  2  0  0  0
 25 26  1  0  0  0
 26 27  2  0  0  0
  6  7  1  0  0  0
  7  8  1  0  0  0
  8 34  1  0  0  0
 34 35  1  0  0  0
 35 36  1  0  0  0
 36 37  1  0  0  0
 37 38  1  0  0  0
 38 39  1  0  0  0
 39 40  2  0  0  0
 39 41  2  0  0  0
 39 42  1  0  0  0
  3  9  1  0  0  0
  9 10  2  0  0  0
 10 11  1  0  0  0
 11 12  1  0  0  0
 11 13  2  0  0  0
 13 14  1  0  0  0
 14 15  2  0  0  0
 15 16  1  0  0  0
 16 17  2  0  0  0
 16  1  1  0  0  0
  8  3  1  0  0  0
 42 37  1  0  0  0
 15  9  1  0  0  0
 27 18  1  0  0  0
 27 22  1  0  0  0
 31 32  1  0  0  0
 31 33  1  0  0  0
M  CHG 1  31   1
M  END
> <minimizedAffinity>
-7.79479

> <CNNscore>
0.1742247492

> <CNNaffinity>
6.5875463486

> <CNN_VS>
1.1477136612

> <CNNaffinity_variance>
0.1556774080

$$$$



 42 47  0  0  0  0  0  0  0  0999 V2000
   -5.5012    4.1497  -23.7414 N   0  0  0  0  0  0  0  0  0  0  0  0
   -5.6849    2.6617  -23.6972 C   0  0  0  0  0  0  0  0  0  0  0  0
   -7.0648    2.0749  -23.7348 C   0  0  0  0  0  0  0  0  0  0  0  0
   -8.3761    1.3471  -23.7645 C   0  0  0  0  0  0  0  0  0  0  0  0
   -9.5676    1.5778  -23.8227 O   0  0  0  0  0  0  0  0  0  0  0  0
   -8.0912   -0.1243  -23.7013 N   0  0  0  0  0  0  0  0  0  0  0  0
   -6.6038   -0.3058  -23.6324 C   0  0  0  0  0  0  0  0  0  0  0  0
   -5.9695    1.0533  -23.6531 C   0  0  0  0  0  0  0  0  0  0  0  0
   -8.2612    2.9762  -23.8165 C   0  0  0  0  0  0  0  0  0  0  0  0
   -9.6411    2.3894  -23.8540 C   0  0  0  0  0  0  0  0  0  0  0  0
  -10.8373    3.2906  -23.9358 C   0  0  0  0  0  0  0  0  0  0  0  0
  -12.2173    2.7038  -23.9733 Cl  0  0  0  0  0  0  0  0  0  0  0  0
  -10.6536    4.7787  -23.9799 C   0  0  0  0  0  0  0  0  0  0  0  0
   -9.2737    5.3655  -23.9424 C   0  0  0  0  0  0  0  0  0  0  0  0
   -8.0775    4.4642  -23.8606 C   0  0  0  0  0  0  0  0  0  0  0  0
   -6.6975    5.0510  -23.8231 C   0  0  0  0  0  0  0  0  0  0  0  0
   -6.5138    6.5391  -23.8672 O   0  0  0  0  0  0  0  0  0  0  0  0
   -9.1141   -1.2214  -23.7060 C   0  0  0  0  0  0  0  0  0  0  0  0
  -10.1394   -1.2956  -22.6137 C   0  0  0  0  0  0  0  0  0  0  0  0
  -11.1623   -2.3927  -22.6184 N   0  0  0  0  0  0  0  0  0  0  0  0
  -11.1598   -3.4156  -23.7155 C   0  0  0  0  0  0  0  0  0  0  0  0
  -10.1345   -3.3414  -24.8079 C   0  0  0  0  0  0  0  0  0  0  0  0
  -10.1320   -4.3644  -25.9050 C   0  0  0  0  0  0  0  0  0  0  0  0
   -9.1066   -4.2901  -26.9973 C   0  0  0  0  0  0  0  0  0  0  0  0
   -8.0838   -3.1930  -26.9925 C   0  0  0  0  0  0  0  0  0  0  0  0
   -8.0862   -2.1701  -25.8954 C   0  0  0  0  0  0  0  0  0  0  0  0
   -9.1116   -2.2443  -24.8031 C   0  0  0  0  0  0  0  0  0  0  0  0
   -4.1212    4.7365  -23.7038 C   0  0  0  0  0  0  0  0  0  0  0  0
   -3.5648    5.2625  -22.4140 C   0  0  0  0  0  0  0  0  0  0  0  0
   -1.6496    4.1590  -21.0486 C   0  0  0  0  0  0  0  0  0  0  0  0
   -3.1116    4.3090  -21.3484 N   0  0  0  0  0  0  0  0  0  0  0  0
   -3.7977    3.7626  -20.8277 H   0  0  0  0  0  0  0  0  0  0  0  0
   -4.1058    4.4110  -21.5523 H   0  0  0  0  0  0  0  0  0  0  0  0
   -4.4982    1.3405  -23.6013 C   0  0  0  0  0  0  0  0  0  0  0  0
   -3.5870    0.4472  -22.8129 O   0  0  0  0  0  0  0  0  0  0  0  0
   -3.2986    0.7527  -21.3729 C   0  0  0  0  0  0  0  0  0  0  0  0
   -4.2267    0.2617  -20.3016 C   0  0  0  0  0  0  0  0  0  0  0  0
   -4.5659    0.7022  -18.9084 C   0  0  0  0  0  0  0  0  0  0  0  0
   -5.5392   -0.4327  -18.7865 S   0  0  0  0  0  0  0  0  0  0  0  0
   -6.5124   -1.5675  -18.6647 O   0  0  0  0  0  0  0  0  0  0  0  0
   -5.8783    0.0078  -17.3934 O   0  0  0  0  0  0  0  0  0  0  0  0
   -5.2000   -0.8732  -20.1798 C   0  0  0  0  0  0  0  0  0  0  0  0
 30 31  1  0  0  0
 31 29  1  0  0  0
 29 28  1  0  0  0
 28  1  1  0  0  0
  1  2  1  0  0  0
  3  2  1  0  0  0
  3  4  1  0  0  0
  4  5  2  0  0  0
  4  6  1  0  0  0
  6 18  1  0  0  0
 18 19  2  0  0  0
 19 20  1  0  0  0
 20 21  2  0  0  0
 21 22  1  0  0  0
 22 23  2  0  0  0
 23 24  1  0  0  0
 24 25  2  0  0  0
 25 26  1  0  0  0
 26 27  2  0  0  0
  6  7  1  0  0  0
  7  8  1  0  0  0
  8 34  1  0  0  0
 34 35  1  0  0  0
 35 36  1  0  0  0
 36 37  1  0  0  0
 37 38  1  0  0  0
 38 39  1  0  0  0
 39 40  2  0  0  0
 39 41  2  0  0  0
 39 42  1  0  0  0
  3  9  1  0  0  0
  9 10  2  0  0  0
 10 11  1  0  0  0
 11 12  1  0  0  0
 11 13  2  0  0  0
 13 14  1  0  0  0
 14 15  2  0  0  0
 15 16  1  0  0  0
 16 17  2  0  0  0
 16  1  1  0  0  0
  8  3  1  0  0  0
 42 37  1  0  0  0
 15  9  1  0  0  0
 27 18  1  0  0  0
 27 22  1  0  0  0
 31 32  1  0  0  0
 31 33  1  0  0  0
M  CHG 1  31   1
M  END
> <minimizedAffinity>
-7.33370

> <CNNscore>
0.1533699781

> <CNNaffinity>
6.2136726379

> <CNN_VS>
0.9529908299

> <CNNaffinity_variance>
0.1843172759

$$$$



 42 47  0  0  0  0  0  0  0  0999 V2000
   -6.1580    0.3581  -21.5777 N   0  0  0  0  0  0  0  0  0  0  0  0
   -6.5044    1.5719  -22.3881 C   0  0  0  0  0  0  0  0  0  0  0  0
   -7.8369    1.6627  -23.0707 C   0  0  0  0  0  0  0  0  0  0  0  0
   -9.1236    1.8942  -23.8061 C   0  0  0  0  0  0  0  0  0  0  0  0
  -10.1859    1.3441  -24.0191 O   0  0  0  0  0  0  0  0  0  0  0  0
   -9.0393    3.2327  -24.4779 N   0  0  0  0  0  0  0  0  0  0  0  0
   -7.7005    3.8285  -24.1576 C   0  0  0  0  0  0  0  0  0  0  0  0
   -6.9574    2.8583  -23.2879 C   0  0  0  0  0  0  0  0  0  0  0  0
   -8.8233    0.5398  -22.9428 C   0  0  0  0  0  0  0  0  0  0  0  0
  -10.1558    0.6307  -23.6254 C   0  0  0  0  0  0  0  0  0  0  0  0
  -11.1420   -0.4922  -23.4975 C   0  0  0  0  0  0  0  0  0  0  0  0
  -12.4747   -0.4014  -24.1801 Cl  0  0  0  0  0  0  0  0  0  0  0  0
  -10.7957   -1.7060  -22.6871 C   0  0  0  0  0  0  0  0  0  0  0  0
   -9.4631   -1.7969  -22.0046 C   0  0  0  0  0  0  0  0  0  0  0  0
   -8.4769   -0.6740  -22.1324 C   0  0  0  0  0  0  0  0  0  0  0  0
   -7.1442   -0.7648  -21.4498 C   0  0  0  0  0  0  0  0  0  0  0  0
   -6.7979   -1.9786  -20.6394 O   0  0  0  0  0  0  0  0  0  0  0  0
  -10.1065    3.8644  -25.3218 C   0  0  0  0  0  0  0  0  0  0  0  0
   -9.9554    3.9079  -26.8135 C   0  0  0  0  0  0  0  0  0  0  0  0
  -11.0225    4.5396  -27.6574 N   0  0  0  0  0  0  0  0  0  0  0  0
  -12.2408    5.1278  -27.0095 C   0  0  0  0  0  0  0  0  0  0  0  0
  -12.3919    5.0843  -25.5177 C   0  0  0  0  0  0  0  0  0  0  0  0
  -13.6103    5.6725  -24.8699 C   0  0  0  0  0  0  0  0  0  0  0  0
  -13.7614    5.6289  -23.3781 C   0  0  0  0  0  0  0  0  0  0  0  0
  -12.6942    4.9972  -22.5342 C   0  0  0  0  0  0  0  0  0  0  0  0
  -11.4759    4.4090  -23.1821 C   0  0  0  0  0  0  0  0  0  0  0  0
  -11.3248    4.4526  -24.6739 C   0  0  0  0  0  0  0  0  0  0  0  0
   -4.8253    0.2672  -20.8951 C   0  0  0  0  0  0  0  0  0  0  0  0
   -4.4612    1.2549  -19.8265 C   0  0  0  0  0  0  0  0  0  0  0  0
   -5.3799   -0.2827  -17.9445 C   0  0  0  0  0  0  0  0  0  0  0  0
   -4.4939    0.8451  -18.3839 N   0  0  0  0  0  0  0  0  0  0  0  0
   -3.9136    1.3334  -17.7018 H   0  0  0  0  0  0  0  0  0  0  0  0
   -3.8914    1.6120  -18.6827 H   0  0  0  0  0  0  0  0  0  0  0  0
   -5.5771    3.0499  -22.7329 C   0  0  0  0  0  0  0  0  0  0  0  0
   -4.9280    4.4010  -22.7867 O   0  0  0  0  0  0  0  0  0  0  0  0
   -3.4362    4.5126  -22.8963 C   0  0  0  0  0  0  0  0  0  0  0  0
   -2.5548    3.6557  -22.0367 C   0  0  0  0  0  0  0  0  0  0  0  0
   -1.9959    3.7659  -20.6491 C   0  0  0  0  0  0  0  0  0  0  0  0
   -1.3083    2.4438  -20.8211 S   0  0  0  0  0  0  0  0  0  0  0  0
   -0.6208    1.1219  -20.9930 O   0  0  0  0  0  0  0  0  0  0  0  0
   -0.7494    2.5540  -19.4335 O   0  0  0  0  0  0  0  0  0  0  0  0
   -1.8673    2.3336  -22.2087 C   0  0  0  0  0  0  0  0  0  0  0  0
 30 31  1  0  0  0
 31 29  1  0  0  0
 29 28  1  0  0  0
 28  1  1  0  0  0
  1  2  1  0  0  0
  3  2  1  0  0  0
  3  4  1  0  0  0
  4  5  2  0  0  0
  4  6  1  0  0  0
  6 18  1  0  0  0
 18 19  2  0  0  0
 19 20  1  0  0  0
 20 21  2  0  0  0
 21 22  1  0  0  0
 22 23  2  0  0  0
 23 24  1  0  0  0
 24 25  2  0  0  0
 25 26  1  0  0  0
 26 27  2  0  0  0
  6  7  1  0  0  0
  7  8  1  0  0  0
  8 34  1  0  0  0
 34 35  1  0  0  0
 35 36  1  0  0  0
 36 37  1  0  0  0
 37 38  1  0  0  0
 38 39  1  0  0  0
 39 40  2  0  0  0
 39 41  2  0  0  0
 39 42  1  0  0  0
  3  9  1  0  0  0
  9 10  2  0  0  0
 10 11  1  0  0  0
 11 12  1  0  0  0
 11 13  2  0  0  0
 13 14  1  0  0  0
 14 15  2  0  0  0
 15 16  1  0  0  0
 16 17  2  0  0  0
 16  1  1  0  0  0
  8  3  1  0  0  0
 42 37  1  0  0  0
 15  9  1  0  0  0
 27 18  1  0  0  0
 27 22  1  0  0  0
 31 32  1  0  0  0
 31 33  1  0  0  0
M  CHG 1  31   1
M  END
> <minimizedAffinity>
-7.96691

> <CNNscore>
0.1310068667

> <CNNaffinity>
5.9405307770

> <CNN_VS>
0.7782503366

> <CNNaffinity_variance>
0.4867717624

$$$$
