


 42 47  0  0  0  0  0  0  0  0999 V2000
   10.1969    0.3390   23.0188 N   0  0  0  0  0  0  0  0  0  0  0  0
    8.9957   -0.5434   22.8500 C   0  0  0  0  0  0  0  0  0  0  0  0
    8.8943   -1.8274   23.6187 C   0  0  0  0  0  0  0  0  0  0  0  0
    8.6546   -3.1334   24.3164 C   0  0  0  0  0  0  0  0  0  0  0  0
    9.1883   -3.8701   25.1220 O   0  0  0  0  0  0  0  0  0  0  0  0
    7.3340   -3.6719   23.8515 N   0  0  0  0  0  0  0  0  0  0  0  0
    6.7575   -2.6986   22.8664 C   0  0  0  0  0  0  0  0  0  0  0  0
    7.7218   -1.5587   22.7226 C   0  0  0  0  0  0  0  0  0  0  0  0
    9.9942   -2.2291   24.5562 C   0  0  0  0  0  0  0  0  0  0  0  0
    9.8929   -3.5132   25.3249 C   0  0  0  0  0  0  0  0  0  0  0  0
   10.9927   -3.9148   26.2624 C   0  0  0  0  0  0  0  0  0  0  0  0
   10.8914   -5.1989   27.0312 Cl  0  0  0  0  0  0  0  0  0  0  0  0
   12.1940   -3.0325   26.4312 C   0  0  0  0  0  0  0  0  0  0  0  0
   12.2953   -1.7484   25.6625 C   0  0  0  0  0  0  0  0  0  0  0  0
   11.1954   -1.3468   24.7250 C   0  0  0  0  0  0  0  0  0  0  0  0
   11.2968   -0.0627   23.9563 C   0  0  0  0  0  0  0  0  0  0  0  0
   12.4980    0.8197   24.1251 O   0  0  0  0  0  0  0  0  0  0  0  0
    6.7011   -4.9578   24.2940 C   0  0  0  0  0  0  0  0  0  0  0  0
    7.1861   -6.2632   23.7366 C   0  0  0  0  0  0  0  0  0  0  0  0
    6.5532   -7.5491   24.1791 N   0  0  0  0  0  0  0  0  0  0  0  0
    5.4353   -7.5296   25.1790 C   0  0  0  0  0  0  0  0  0  0  0  0
    4.9503   -6.2242   25.7364 C   0  0  0  0  0  0  0  0  0  0  0  0
    3.8322   -6.2048   26.7363 C   0  0  0  0  0  0  0  0  0  0  0  0
    3.3473   -4.8993   27.2936 C   0  0  0  0  0  0  0  0  0  0  0  0
    3.9802   -3.6134   26.8512 C   0  0  0  0  0  0  0  0  0  0  0  0
    5.0982   -3.6329   25.8513 C   0  0  0  0  0  0  0  0  0  0  0  0
    5.5832   -4.9383   25.2939 C   0  0  0  0  0  0  0  0  0  0  0  0
   10.2982    1.6231   22.2500 C   0  0  0  0  0  0  0  0  0  0  0  0
    8.1671    4.7714   23.3887 C   0  0  0  0  0  0  0  0  0  0  0  0
    9.2737    3.7617   23.3114 N   0  0  0  0  0  0  0  0  0  0  0  0
    9.1916    2.6328   22.3273 C   0  0  0  0  0  0  0  0  0  0  0  0
    8.0028    2.5134   21.4203 O   0  0  0  0  0  0  0  0  0  0  0  0
   10.0540    3.8401   23.9067 H   0  0  0  0  0  0  0  0  0  0  0  0
    7.5447   -0.3604   21.8378 C   0  0  0  0  0  0  0  0  0  0  0  0
    7.3868   -0.5383   20.3569 N   0  0  0  0  0  0  0  0  0  0  0  0
    8.0175   -1.1074   19.8594 H   0  0  0  0  0  0  0  0  0  0  0  0
    6.2678    0.1510   19.6338 C   0  0  0  0  0  0  0  0  0  0  0  0
    5.1130    0.7178   20.4052 C   0  0  0  0  0  0  0  0  0  0  0  0
    3.9941    1.4070   19.6822 C   0  0  0  0  0  0  0  0  0  0  0  0
    4.0298    1.5294   18.1876 N   0  0  0  0  0  0  0  0  0  0  0  0
    5.1846    0.9626   17.4161 C   0  0  0  0  0  0  0  0  0  0  0  0
    6.3036    0.2734   18.1392 N   0  0  0  0  0  0  0  0  0  0  0  0
 29 30  1  0  0  0
 30 31  1  0  0  0
 31 32  2  0  0  0
 31 28  1  0  0  0
 28  1  1  0  0  0
  1  2  1  0  0  0
  3  2  1  0  0  0
  3  4  1  0  0  0
  4  5  2  0  0  0
  4  6  1  0  0  0
  6 18  1  0  0  0
 18 19  2  0  0  0
 19 20  1  0  0  0
 20 21  2  0  0  0
 21 22  1  0  0  0
 22 23  2  0  0  0
 23 24  1  0  0  0
 24 25  2  0  0  0
 25 26  1  0  0  0
 26 27  2  0  0  0
  6  7  1  0  0  0
  7  8  1  0  0  0
  8 34  1  0  0  0
 34 35  1  0  0  0
 35 37  1  0  0  0
 37 38  2  0  0  0
 38 39  1  0  0  0
 39 40  2  0  0  0
 40 41  1  0  0  0
 41 42  2  0  0  0
  3  9  1  0  0  0
  9 10  2  0  0  0
 10 11  1  0  0  0
 11 12  1  0  0  0
 11 13  2  0  0  0
 13 14  1  0  0  0
 14 15  2  0  0  0
 15 16  1  0  0  0
 16 17  2  0  0  0
 16  1  1  0  0  0
  8  3  1  0  0  0
 42 37  1  0  0  0
 15  9  1  0  0  0
 27 18  1  0  0  0
 27 22  1  0  0  0
 30 33  1  0  0  0
 35 36  1  0  0  0
M  END
> <minimizedAffinity>
-9.48768

> <CNNscore>
0.5143720508

> <CNNaffinity>
7.2163071632

> <CNN_VS>
3.7118666172

> <CNNaffinity_variance>
0.2073040456

$$$$



 42 47  0  0  0  0  0  0  0  0999 V2000
    6.9408   -3.6062   23.5712 N   0  0  0  0  0  0  0  0  0  0  0  0
    7.1022   -2.2115   23.0432 C   0  0  0  0  0  0  0  0  0  0  0  0
    8.3477   -1.4335   23.3482 C   0  0  0  0  0  0  0  0  0  0  0  0
    9.5308   -0.5383   23.5695 C   0  0  0  0  0  0  0  0  0  0  0  0
   10.6086   -0.5417   24.1304 O   0  0  0  0  0  0  0  0  0  0  0  0
    9.2685    0.7594   22.8642 N   0  0  0  0  0  0  0  0  0  0  0  0
    7.9234    0.6662   22.2071 C   0  0  0  0  0  0  0  0  0  0  0  0
    7.3543   -0.6891   22.5062 C   0  0  0  0  0  0  0  0  0  0  0  0
    9.4321   -2.0501   24.1814 C   0  0  0  0  0  0  0  0  0  0  0  0
   10.6776   -1.2720   24.4865 C   0  0  0  0  0  0  0  0  0  0  0  0
   11.7619   -1.8886   25.3196 C   0  0  0  0  0  0  0  0  0  0  0  0
   13.0075   -1.1105   25.6247 Cl  0  0  0  0  0  0  0  0  0  0  0  0
   11.6006   -3.2833   25.8477 C   0  0  0  0  0  0  0  0  0  0  0  0
   10.3550   -4.0614   25.5426 C   0  0  0  0  0  0  0  0  0  0  0  0
    9.2708   -3.4448   24.7094 C   0  0  0  0  0  0  0  0  0  0  0  0
    8.0251   -4.2228   24.4043 C   0  0  0  0  0  0  0  0  0  0  0  0
    7.8638   -5.6175   24.9324 O   0  0  0  0  0  0  0  0  0  0  0  0
   10.1897    1.9425   22.8233 C   0  0  0  0  0  0  0  0  0  0  0  0
   11.6605    1.7408   22.6083 C   0  0  0  0  0  0  0  0  0  0  0  0
   12.5817    2.9239   22.5674 N   0  0  0  0  0  0  0  0  0  0  0  0
   12.0321    4.3087   22.7415 C   0  0  0  0  0  0  0  0  0  0  0  0
   10.5613    4.5103   22.9566 C   0  0  0  0  0  0  0  0  0  0  0  0
   10.0118    5.8952   23.1308 C   0  0  0  0  0  0  0  0  0  0  0  0
    8.5410    6.0968   23.3459 C   0  0  0  0  0  0  0  0  0  0  0  0
    7.6198    4.9137   23.3868 C   0  0  0  0  0  0  0  0  0  0  0  0
    8.1694    3.5289   23.2126 C   0  0  0  0  0  0  0  0  0  0  0  0
    9.6402    3.3273   22.9975 C   0  0  0  0  0  0  0  0  0  0  0  0
    5.6952   -4.3843   23.2661 C   0  0  0  0  0  0  0  0  0  0  0  0
    4.5821   -7.5492   25.3861 C   0  0  0  0  0  0  0  0  0  0  0  0
    5.2235   -6.7119   24.3195 N   0  0  0  0  0  0  0  0  0  0  0  0
    5.0538   -5.2216   24.3326 C   0  0  0  0  0  0  0  0  0  0  0  0
    4.2427   -4.5686   25.4123 O   0  0  0  0  0  0  0  0  0  0  0  0
    5.7559   -7.1405   23.6109 H   0  0  0  0  0  0  0  0  0  0  0  0
    6.0251   -1.2087   22.0444 C   0  0  0  0  0  0  0  0  0  0  0  0
    5.7861   -1.4663   20.5862 N   0  0  0  0  0  0  0  0  0  0  0  0
    5.9817   -2.3524   20.2043 H   0  0  0  0  0  0  0  0  0  0  0  0
    5.2489   -0.3739   19.7097 C   0  0  0  0  0  0  0  0  0  0  0  0
    4.3431    0.6734   20.2866 C   0  0  0  0  0  0  0  0  0  0  0  0
    3.8059    1.7657   19.4102 C   0  0  0  0  0  0  0  0  0  0  0  0
    4.1745    1.8108   17.9568 N   0  0  0  0  0  0  0  0  0  0  0  0
    5.0803    0.7636   17.3800 C   0  0  0  0  0  0  0  0  0  0  0  0
    5.6175   -0.3288   18.2565 N   0  0  0  0  0  0  0  0  0  0  0  0
 29 30  1  0  0  0
 30 31  1  0  0  0
 31 32  2  0  0  0
 31 28  1  0  0  0
 28  1  1  0  0  0
  1  2  1  0  0  0
  3  2  1  0  0  0
  3  4  1  0  0  0
  4  5  2  0  0  0
  4  6  1  0  0  0
  6 18  1  0  0  0
 18 19  2  0  0  0
 19 20  1  0  0  0
 20 21  2  0  0  0
 21 22  1  0  0  0
 22 23  2  0  0  0
 23 24  1  0  0  0
 24 25  2  0  0  0
 25 26  1  0  0  0
 26 27  2  0  0  0
  6  7  1  0  0  0
  7  8  1  0  0  0
  8 34  1  0  0  0
 34 35  1  0  0  0
 35 37  1  0  0  0
 37 38  2  0  0  0
 38 39  1  0  0  0
 39 40  2  0  0  0
 40 41  1  0  0  0
 41 42  2  0  0  0
  3  9  1  0  0  0
  9 10  2  0  0  0
 10 11  1  0  0  0
 11 12  1  0  0  0
 11 13  2  0  0  0
 13 14  1  0  0  0
 14 15  2  0  0  0
 15 16  1  0  0  0
 16 17  2  0  0  0
 16  1  1  0  0  0
  8  3  1  0  0  0
 42 37  1  0  0  0
 15  9  1  0  0  0
 27 18  1  0  0  0
 27 22  1  0  0  0
 30 33  1  0  0  0
 35 36  1  0  0  0
M  END
> <minimizedAffinity>
-8.72011

> <CNNscore>
0.2642669082

> <CNNaffinity>
6.9158568382

> <CNN_VS>
1.8276320696

> <CNNaffinity_variance>
0.1886720955

$$$$



 42 47  0  0  0  0  0  0  0  0999 V2000
    6.5765   -3.1400   24.1984 N   0  0  0  0  0  0  0  0  0  0  0  0
    6.7968   -1.7677   23.6344 C   0  0  0  0  0  0  0  0  0  0  0  0
    8.1382   -1.1093   23.7657 C   0  0  0  0  0  0  0  0  0  0  0  0
    9.4178   -0.3286   23.8203 C   0  0  0  0  0  0  0  0  0  0  0  0
   10.5542   -0.4321   24.2378 O   0  0  0  0  0  0  0  0  0  0  0  0
    9.1881    0.9865   23.1365 N   0  0  0  0  0  0  0  0  0  0  0  0
    7.7664    1.0186   22.6592 C   0  0  0  0  0  0  0  0  0  0  0  0
    7.1175   -0.2767   23.0481 C   0  0  0  0  0  0  0  0  0  0  0  0
    9.2593   -1.8233   24.4611 C   0  0  0  0  0  0  0  0  0  0  0  0
   10.6006   -1.1649   24.5924 C   0  0  0  0  0  0  0  0  0  0  0  0
   11.7216   -1.8789   25.2877 C   0  0  0  0  0  0  0  0  0  0  0  0
   13.0631   -1.2206   25.4191 Cl  0  0  0  0  0  0  0  0  0  0  0  0
   11.5013   -3.2513   25.8517 C   0  0  0  0  0  0  0  0  0  0  0  0
   10.1599   -3.9097   25.7204 C   0  0  0  0  0  0  0  0  0  0  0  0
    9.0389   -3.1957   25.0251 C   0  0  0  0  0  0  0  0  0  0  0  0
    7.6975   -3.8540   24.8937 C   0  0  0  0  0  0  0  0  0  0  0  0
    7.4771   -5.2264   25.4577 O   0  0  0  0  0  0  0  0  0  0  0  0
   10.2020    2.0779   22.9607 C   0  0  0  0  0  0  0  0  0  0  0  0
   11.6389    1.7324   22.7040 C   0  0  0  0  0  0  0  0  0  0  0  0
   12.6529    2.8238   22.5283 N   0  0  0  0  0  0  0  0  0  0  0  0
   12.2298    4.2606   22.6093 C   0  0  0  0  0  0  0  0  0  0  0  0
   10.7929    4.6060   22.8660 C   0  0  0  0  0  0  0  0  0  0  0  0
   10.3699    6.0429   22.9469 C   0  0  0  0  0  0  0  0  0  0  0  0
    8.9329    6.3883   23.2036 C   0  0  0  0  0  0  0  0  0  0  0  0
    7.9190    5.2969   23.3793 C   0  0  0  0  0  0  0  0  0  0  0  0
    8.3420    3.8601   23.2984 C   0  0  0  0  0  0  0  0  0  0  0  0
    9.7790    3.5147   23.0417 C   0  0  0  0  0  0  0  0  0  0  0  0
    5.2350   -3.7984   24.0671 C   0  0  0  0  0  0  0  0  0  0  0  0
    5.8265   -6.3701   21.1029 C   0  0  0  0  0  0  0  0  0  0  0  0
    5.9939   -5.1822   22.0033 N   0  0  0  0  0  0  0  0  0  0  0  0
    5.0676   -4.9864   23.1667 C   0  0  0  0  0  0  0  0  0  0  0  0
    3.9737   -5.9786   23.4297 O   0  0  0  0  0  0  0  0  0  0  0  0
    6.7118   -4.5310   21.8306 H   0  0  0  0  0  0  0  0  0  0  0  0
    5.6973   -0.6702   22.7685 C   0  0  0  0  0  0  0  0  0  0  0  0
    4.8239    0.2174   21.9324 N   0  0  0  0  0  0  0  0  0  0  0  0
    4.1653    0.8081   22.3644 H   0  0  0  0  0  0  0  0  0  0  0  0
    4.9536    0.2049   20.4380 C   0  0  0  0  0  0  0  0  0  0  0  0
    4.2626    1.2526   19.6165 C   0  0  0  0  0  0  0  0  0  0  0  0
    4.3924    1.2402   18.1222 C   0  0  0  0  0  0  0  0  0  0  0  0
    5.2131    0.1801   17.4494 N   0  0  0  0  0  0  0  0  0  0  0  0
    5.9041   -0.8675   18.2709 C   0  0  0  0  0  0  0  0  0  0  0  0
    5.7744   -0.8551   19.7652 N   0  0  0  0  0  0  0  0  0  0  0  0
 29 30  1  0  0  0
 30 31  1  0  0  0
 31 32  2  0  0  0
 31 28  1  0  0  0
 28  1  1  0  0  0
  1  2  1  0  0  0
  3  2  1  0  0  0
  3  4  1  0  0  0
  4  5  2  0  0  0
  4  6  1  0  0  0
  6 18  1  0  0  0
 18 19  2  0  0  0
 19 20  1  0  0  0
 20 21  2  0  0  0
 21 22  1  0  0  0
 22 23  2  0  0  0
 23 24  1  0  0  0
 24 25  2  0  0  0
 25 26  1  0  0  0
 26 27  2  0  0  0
  6  7  1  0  0  0
  7  8  1  0  0  0
  8 34  1  0  0  0
 34 35  1  0  0  0
 35 37  1  0  0  0
 37 38  2  0  0  0
 38 39  1  0  0  0
 39 40  2  0  0  0
 40 41  1  0  0  0
 41 42  2  0  0  0
  3  9  1  0  0  0
  9 10  2  0  0  0
 10 11  1  0  0  0
 11 12  1  0  0  0
 11 13  2  0  0  0
 13 14  1  0  0  0
 14 15  2  0  0  0
 15 16  1  0  0  0
 16 17  2  0  0  0
 16  1  1  0  0  0
  8  3  1  0  0  0
 42 37  1  0  0  0
 15  9  1  0  0  0
 27 18  1  0  0  0
 27 22  1  0  0  0
 30 33  1  0  0  0
 35 36  1  0  0  0
M  END
> <minimizedAffinity>
-8.65209

> <CNNscore>
0.2298708558

> <CNNaffinity>
6.9341440201

> <CNN_VS>
1.5939576626

> <CNNaffinity_variance>
0.1401068121

$$$$



 42 47  0  0  0  0  0  0  0  0999 V2000
    9.0864    4.6398   23.0090 N   0  0  0  0  0  0  0  0  0  0  0  0
    8.0696    3.5484   23.1664 C   0  0  0  0  0  0  0  0  0  0  0  0
    8.5013    2.1121   23.1431 C   0  0  0  0  0  0  0  0  0  0  0  0
    8.7819    0.6385   23.1404 C   0  0  0  0  0  0  0  0  0  0  0  0
    9.7166   -0.1308   23.0363 O   0  0  0  0  0  0  0  0  0  0  0  0
    7.4794   -0.0817   23.3264 N   0  0  0  0  0  0  0  0  0  0  0  0
    6.3937    0.9467   23.4442 C   0  0  0  0  0  0  0  0  0  0  0  0
    7.0254    2.3025   23.3309 C   0  0  0  0  0  0  0  0  0  0  0  0
    9.9500    1.7671   22.9624 C   0  0  0  0  0  0  0  0  0  0  0  0
   10.3817    0.3308   22.9391 C   0  0  0  0  0  0  0  0  0  0  0  0
   11.8302   -0.0140   22.7585 C   0  0  0  0  0  0  0  0  0  0  0  0
   12.2620   -1.4504   22.7352 Cl  0  0  0  0  0  0  0  0  0  0  0  0
   12.8471    1.0774   22.6011 C   0  0  0  0  0  0  0  0  0  0  0  0
   12.4154    2.5137   22.6243 C   0  0  0  0  0  0  0  0  0  0  0  0
   10.9668    2.8586   22.8050 C   0  0  0  0  0  0  0  0  0  0  0  0
   10.5350    4.2950   22.8283 C   0  0  0  0  0  0  0  0  0  0  0  0
   11.5519    5.3864   22.6709 O   0  0  0  0  0  0  0  0  0  0  0  0
    7.2949   -1.5692   23.3846 C   0  0  0  0  0  0  0  0  0  0  0  0
    6.2838   -2.2348   22.4986 C   0  0  0  0  0  0  0  0  0  0  0  0
    6.0993   -3.7222   22.5567 N   0  0  0  0  0  0  0  0  0  0  0  0
    6.9259   -4.5441   23.5008 C   0  0  0  0  0  0  0  0  0  0  0  0
    7.9369   -3.8786   24.3868 C   0  0  0  0  0  0  0  0  0  0  0  0
    8.7634   -4.7006   25.3309 C   0  0  0  0  0  0  0  0  0  0  0  0
    9.7744   -4.0349   26.2168 C   0  0  0  0  0  0  0  0  0  0  0  0
    9.9589   -2.5475   26.1587 C   0  0  0  0  0  0  0  0  0  0  0  0
    9.1324   -1.7255   25.2146 C   0  0  0  0  0  0  0  0  0  0  0  0
    8.1214   -2.3911   24.3286 C   0  0  0  0  0  0  0  0  0  0  0  0
    8.6547    6.0762   23.0323 C   0  0  0  0  0  0  0  0  0  0  0  0
   10.5126    7.8257   26.0715 C   0  0  0  0  0  0  0  0  0  0  0  0
   10.2708    6.9896   24.8499 N   0  0  0  0  0  0  0  0  0  0  0  0
    8.8965    6.9123   24.2540 C   0  0  0  0  0  0  0  0  0  0  0  0
    7.7638    7.6711   24.8797 O   0  0  0  0  0  0  0  0  0  0  0  0
   11.0141    6.4916   24.4392 H   0  0  0  0  0  0  0  0  0  0  0  0
    6.3071    3.6178   23.3943 C   0  0  0  0  0  0  0  0  0  0  0  0
    5.6512    4.1742   22.1654 N   0  0  0  0  0  0  0  0  0  0  0  0
    5.7682    5.1234   21.9319 H   0  0  0  0  0  0  0  0  0  0  0  0
    4.8170    3.2844   21.2923 C   0  0  0  0  0  0  0  0  0  0  0  0
    3.3546    3.5664   21.1136 C   0  0  0  0  0  0  0  0  0  0  0  0
    2.5204    2.6767   20.2406 C   0  0  0  0  0  0  0  0  0  0  0  0
    3.1485    1.5048   19.5460 N   0  0  0  0  0  0  0  0  0  0  0  0
    4.6109    1.2228   19.7247 C   0  0  0  0  0  0  0  0  0  0  0  0
    5.4451    2.1126   20.5978 N   0  0  0  0  0  0  0  0  0  0  0  0
 29 30  1  0  0  0
 30 31  1  0  0  0
 31 32  2  0  0  0
 31 28  1  0  0  0
 28  1  1  0  0  0
  1  2  1  0  0  0
  3  2  1  0  0  0
  3  4  1  0  0  0
  4  5  2  0  0  0
  4  6  1  0  0  0
  6 18  1  0  0  0
 18 19  2  0  0  0
 19 20  1  0  0  0
 20 21  2  0  0  0
 21 22  1  0  0  0
 22 23  2  0  0  0
 23 24  1  0  0  0
 24 25  2  0  0  0
 25 26  1  0  0  0
 26 27  2  0  0  0
  6  7  1  0  0  0
  7  8  1  0  0  0
  8 34  1  0  0  0
 34 35  1  0  0  0
 35 37  1  0  0  0
 37 38  2  0  0  0
 38 39  1  0  0  0
 39 40  2  0  0  0
 40 41  1  0  0  0
 41 42  2  0  0  0
  3  9  1  0  0  0
  9 10  2  0  0  0
 10 11  1  0  0  0
 11 12  1  0  0  0
 11 13  2  0  0  0
 13 14  1  0  0  0
 14 15  2  0  0  0
 15 16  1  0  0  0
 16 17  2  0  0  0
 16  1  1  0  0  0
  8  3  1  0  0  0
 42 37  1  0  0  0
 15  9  1  0  0  0
 27 18  1  0  0  0
 27 22  1  0  0  0
 30 33  1  0  0  0
 35 36  1  0  0  0
M  END
> <minimizedAffinity>
-7.74318

> <CNNscore>
0.2291480750

> <CNNaffinity>
6.8297510147

> <CNN_VS>
1.5650242567

> <CNNaffinity_variance>
0.1329270899

$$$$



 42 47  0  0  0  0  0  0  0  0999 V2000
   10.5565    0.5161   22.9559 N   0  0  0  0  0  0  0  0  0  0  0  0
    9.2049   -0.1337   22.9846 C   0  0  0  0  0  0  0  0  0  0  0  0
    8.9701   -1.3386   23.8466 C   0  0  0  0  0  0  0  0  0  0  0  0
    8.5877   -2.5426   24.6554 C   0  0  0  0  0  0  0  0  0  0  0  0
    9.0756   -3.3269   25.4447 O   0  0  0  0  0  0  0  0  0  0  0  0
    7.1448   -2.8467   24.3802 N   0  0  0  0  0  0  0  0  0  0  0  0
    6.6355   -1.8306   23.4013 C   0  0  0  0  0  0  0  0  0  0  0  0
    7.7636   -0.8986   23.0716 C   0  0  0  0  0  0  0  0  0  0  0  0
   10.0871   -1.8936   24.6800 C   0  0  0  0  0  0  0  0  0  0  0  0
    9.8523   -3.0985   25.5421 C   0  0  0  0  0  0  0  0  0  0  0  0
   10.9692   -3.6535   26.3754 C   0  0  0  0  0  0  0  0  0  0  0  0
   10.7345   -4.8584   27.2375 Cl  0  0  0  0  0  0  0  0  0  0  0  0
   12.3208   -3.0037   26.3467 C   0  0  0  0  0  0  0  0  0  0  0  0
   12.5555   -1.7988   25.4847 C   0  0  0  0  0  0  0  0  0  0  0  0
   11.4387   -1.2438   24.6513 C   0  0  0  0  0  0  0  0  0  0  0  0
   11.6734   -0.0389   23.7892 C   0  0  0  0  0  0  0  0  0  0  0  0
   13.0250    0.6110   23.7605 O   0  0  0  0  0  0  0  0  0  0  0  0
    6.3508   -3.9697   24.9788 C   0  0  0  0  0  0  0  0  0  0  0  0
    6.2176   -5.2698   24.2426 C   0  0  0  0  0  0  0  0  0  0  0  0
    5.4236   -6.3928   24.8411 N   0  0  0  0  0  0  0  0  0  0  0  0
    4.7626   -6.2156   26.1759 C   0  0  0  0  0  0  0  0  0  0  0  0
    4.8957   -4.9155   26.9122 C   0  0  0  0  0  0  0  0  0  0  0  0
    4.2347   -4.7384   28.2471 C   0  0  0  0  0  0  0  0  0  0  0  0
    4.3679   -3.4383   28.9832 C   0  0  0  0  0  0  0  0  0  0  0  0
    5.1620   -2.3153   28.3846 C   0  0  0  0  0  0  0  0  0  0  0  0
    5.8229   -2.4924   27.0498 C   0  0  0  0  0  0  0  0  0  0  0  0
    5.6898   -3.7925   26.3136 C   0  0  0  0  0  0  0  0  0  0  0  0
   10.7912    1.7211   22.0938 C   0  0  0  0  0  0  0  0  0  0  0  0
   10.8630    5.6260   22.7984 C   0  0  0  0  0  0  0  0  0  0  0  0
   11.2674    4.2657   22.3123 N   0  0  0  0  0  0  0  0  0  0  0  0
   10.3868    3.0813   22.5798 C   0  0  0  0  0  0  0  0  0  0  0  0
    9.1018    3.2570   23.3335 O   0  0  0  0  0  0  0  0  0  0  0  0
   12.1107    4.1504   21.8176 H   0  0  0  0  0  0  0  0  0  0  0  0
    7.6969    0.2686   22.1317 C   0  0  0  0  0  0  0  0  0  0  0  0
    7.6322    0.0367   20.6513 N   0  0  0  0  0  0  0  0  0  0  0  0
    8.3679   -0.4309   20.1937 H   0  0  0  0  0  0  0  0  0  0  0  0
    6.4468    0.5174   19.8678 C   0  0  0  0  0  0  0  0  0  0  0  0
    5.3384    1.2534   20.5604 C   0  0  0  0  0  0  0  0  0  0  0  0
    4.1531    1.7340   19.7771 C   0  0  0  0  0  0  0  0  0  0  0  0
    4.0760    1.4786   18.3009 N   0  0  0  0  0  0  0  0  0  0  0  0
    5.1843    0.7426   17.6083 C   0  0  0  0  0  0  0  0  0  0  0  0
    6.3698    0.2620   18.3917 N   0  0  0  0  0  0  0  0  0  0  0  0
 29 30  1  0  0  0
 30 31  1  0  0  0
 31 32  2  0  0  0
 31 28  1  0  0  0
 28  1  1  0  0  0
  1  2  1  0  0  0
  3  2  1  0  0  0
  3  4  1  0  0  0
  4  5  2  0  0  0
  4  6  1  0  0  0
  6 18  1  0  0  0
 18 19  2  0  0  0
 19 20  1  0  0  0
 20 21  2  0  0  0
 21 22  1  0  0  0
 22 23  2  0  0  0
 23 24  1  0  0  0
 24 25  2  0  0  0
 25 26  1  0  0  0
 26 27  2  0  0  0
  6  7  1  0  0  0
  7  8  1  0  0  0
  8 34  1  0  0  0
 34 35  1  0  0  0
 35 37  1  0  0  0
 37 38  2  0  0  0
 38 39  1  0  0  0
 39 40  2  0  0  0
 40 41  1  0  0  0
 41 42  2  0  0  0
  3  9  1  0  0  0
  9 10  2  0  0  0
 10 11  1  0  0  0
 11 12  1  0  0  0
 11 13  2  0  0  0
 13 14  1  0  0  0
 14 15  2  0  0  0
 15 16  1  0  0  0
 16 17  2  0  0  0
 16  1  1  0  0  0
  8  3  1  0  0  0
 42 37  1  0  0  0
 15  9  1  0  0  0
 27 18  1  0  0  0
 27 22  1  0  0  0
 30 33  1  0  0  0
 35 36  1  0  0  0
M  END
> <minimizedAffinity>
-8.81885

> <CNNscore>
0.2270678282

> <CNNaffinity>
6.9787368774

> <CNN_VS>
1.5846465826

> <CNNaffinity_variance>
0.1096920967

$$$$



 42 47  0  0  0  0  0  0  0  0999 V2000
    5.1720    1.2858   21.4924 N   0  0  0  0  0  0  0  0  0  0  0  0
    6.0609    0.1035   21.7410 C   0  0  0  0  0  0  0  0  0  0  0  0
    7.4683    0.3102   22.2169 C   0  0  0  0  0  0  0  0  0  0  0  0
    8.8903    0.3605   22.6914 C   0  0  0  0  0  0  0  0  0  0  0  0
    9.7386    1.1718   23.0055 O   0  0  0  0  0  0  0  0  0  0  0  0
    9.3922   -1.0487   22.8025 N   0  0  0  0  0  0  0  0  0  0  0  0
    8.2803   -1.9700   22.3965 C   0  0  0  0  0  0  0  0  0  0  0  0
    7.0913   -1.1302   22.0346 C   0  0  0  0  0  0  0  0  0  0  0  0
    7.9868    1.6993   22.4442 C   0  0  0  0  0  0  0  0  0  0  0  0
    9.3942    1.9060   22.9200 C   0  0  0  0  0  0  0  0  0  0  0  0
    9.9126    3.2950   23.1473 C   0  0  0  0  0  0  0  0  0  0  0  0
   11.3201    3.5018   23.6232 Cl  0  0  0  0  0  0  0  0  0  0  0  0
    9.0237    4.4774   22.8987 C   0  0  0  0  0  0  0  0  0  0  0  0
    7.6163    4.2707   22.4228 C   0  0  0  0  0  0  0  0  0  0  0  0
    7.0978    2.8816   22.1955 C   0  0  0  0  0  0  0  0  0  0  0  0
    5.6904    2.6749   21.7196 C   0  0  0  0  0  0  0  0  0  0  0  0
    4.8015    3.8572   21.4710 O   0  0  0  0  0  0  0  0  0  0  0  0
   10.7649   -1.4636   23.2422 C   0  0  0  0  0  0  0  0  0  0  0  0
   11.9569   -1.1294   22.3951 C   0  0  0  0  0  0  0  0  0  0  0  0
   13.3296   -1.5444   22.8349 N   0  0  0  0  0  0  0  0  0  0  0  0
   13.5104   -2.2936   24.1218 C   0  0  0  0  0  0  0  0  0  0  0  0
   12.3184   -2.6277   24.9689 C   0  0  0  0  0  0  0  0  0  0  0  0
   12.4992   -3.3769   26.2558 C   0  0  0  0  0  0  0  0  0  0  0  0
   11.3072   -3.7111   27.1029 C   0  0  0  0  0  0  0  0  0  0  0  0
    9.9345   -3.2961   26.6631 C   0  0  0  0  0  0  0  0  0  0  0  0
    9.7537   -2.5470   25.3762 C   0  0  0  0  0  0  0  0  0  0  0  0
   10.9457   -2.2128   24.5291 C   0  0  0  0  0  0  0  0  0  0  0  0
    3.7645    1.0790   21.0165 C   0  0  0  0  0  0  0  0  0  0  0  0
    1.4717    3.9794   19.5738 C   0  0  0  0  0  0  0  0  0  0  0  0
    2.0898    3.0055   20.5328 N   0  0  0  0  0  0  0  0  0  0  0  0
    3.1464    2.0529   20.0575 C   0  0  0  0  0  0  0  0  0  0  0  0
    3.5849    2.0739   18.6231 O   0  0  0  0  0  0  0  0  0  0  0  0
    1.8020    2.9917   21.4742 H   0  0  0  0  0  0  0  0  0  0  0  0
    5.7591   -1.6411   21.5717 C   0  0  0  0  0  0  0  0  0  0  0  0
    5.0378   -2.6860   22.3702 N   0  0  0  0  0  0  0  0  0  0  0  0
    4.1823   -2.4687   22.8064 H   0  0  0  0  0  0  0  0  0  0  0  0
    5.6198   -4.0620   22.5044 C   0  0  0  0  0  0  0  0  0  0  0  0
    6.3282   -4.4569   23.7662 C   0  0  0  0  0  0  0  0  0  0  0  0
    6.9102   -5.8328   23.9004 C   0  0  0  0  0  0  0  0  0  0  0  0
    6.7838   -6.8139   22.7727 N   0  0  0  0  0  0  0  0  0  0  0  0
    6.0754   -6.4189   21.5109 C   0  0  0  0  0  0  0  0  0  0  0  0
    5.4934   -5.0430   21.3767 N   0  0  0  0  0  0  0  0  0  0  0  0
 29 30  1  0  0  0
 30 31  1  0  0  0
 31 32  2  0  0  0
 31 28  1  0  0  0
 28  1  1  0  0  0
  1  2  1  0  0  0
  3  2  1  0  0  0
  3  4  1  0  0  0
  4  5  2  0  0  0
  4  6  1  0  0  0
  6 18  1  0  0  0
 18 19  2  0  0  0
 19 20  1  0  0  0
 20 21  2  0  0  0
 21 22  1  0  0  0
 22 23  2  0  0  0
 23 24  1  0  0  0
 24 25  2  0  0  0
 25 26  1  0  0  0
 26 27  2  0  0  0
  6  7  1  0  0  0
  7  8  1  0  0  0
  8 34  1  0  0  0
 34 35  1  0  0  0
 35 37  1  0  0  0
 37 38  2  0  0  0
 38 39  1  0  0  0
 39 40  2  0  0  0
 40 41  1  0  0  0
 41 42  2  0  0  0
  3  9  1  0  0  0
  9 10  2  0  0  0
 10 11  1  0  0  0
 11 12  1  0  0  0
 11 13  2  0  0  0
 13 14  1  0  0  0
 14 15  2  0  0  0
 15 16  1  0  0  0
 16 17  2  0  0  0
 16  1  1  0  0  0
  8  3  1  0  0  0
 42 37  1  0  0  0
 15  9  1  0  0  0
 27 18  1  0  0  0
 27 22  1  0  0  0
 30 33  1  0  0  0
 35 36  1  0  0  0
M  END
> <minimizedAffinity>
-7.95686

> <CNNscore>
0.1942648143

> <CNNaffinity>
6.8777136803

> <CNN_VS>
1.3360977173

> <CNNaffinity_variance>
0.0387297049

$$$$



 42 47  0  0  0  0  0  0  0  0999 V2000
   10.7121    1.5828   22.7222 N   0  0  0  0  0  0  0  0  0  0  0  0
    9.3244    1.1398   23.0800 C   0  0  0  0  0  0  0  0  0  0  0  0
    9.1225   -0.0729   23.9395 C   0  0  0  0  0  0  0  0  0  0  0  0
    8.7663   -1.2592   24.7855 C   0  0  0  0  0  0  0  0  0  0  0  0
    9.3037   -2.1590   25.4003 O   0  0  0  0  0  0  0  0  0  0  0  0
    7.2710   -1.3268   24.8830 N   0  0  0  0  0  0  0  0  0  0  0  0
    6.7030   -0.1823   24.0973 C   0  0  0  0  0  0  0  0  0  0  0  0
    7.8473    0.5926   23.5141 C   0  0  0  0  0  0  0  0  0  0  0  0
   10.3083   -0.8426   24.4411 C   0  0  0  0  0  0  0  0  0  0  0  0
   10.1063   -2.0553   25.3005 C   0  0  0  0  0  0  0  0  0  0  0  0
   11.2920   -2.8249   25.8020 C   0  0  0  0  0  0  0  0  0  0  0  0
   11.0901   -4.0377   26.6615 Cl  0  0  0  0  0  0  0  0  0  0  0  0
   12.6797   -2.3819   25.4442 C   0  0  0  0  0  0  0  0  0  0  0  0
   12.8817   -1.1693   24.5847 C   0  0  0  0  0  0  0  0  0  0  0  0
   11.6960   -0.3996   24.0832 C   0  0  0  0  0  0  0  0  0  0  0  0
   11.8979    0.8131   23.2237 C   0  0  0  0  0  0  0  0  0  0  0  0
   13.2856    1.2561   22.8659 O   0  0  0  0  0  0  0  0  0  0  0  0
    6.4822   -2.3580   25.6344 C   0  0  0  0  0  0  0  0  0  0  0  0
    5.9480   -2.0448   27.0007 C   0  0  0  0  0  0  0  0  0  0  0  0
    5.1592   -3.0759   27.7520 N   0  0  0  0  0  0  0  0  0  0  0  0
    4.9047   -4.4202   27.1372 C   0  0  0  0  0  0  0  0  0  0  0  0
    5.4390   -4.7334   25.7710 C   0  0  0  0  0  0  0  0  0  0  0  0
    5.1844   -6.0778   25.1562 C   0  0  0  0  0  0  0  0  0  0  0  0
    5.7187   -6.3909   23.7900 C   0  0  0  0  0  0  0  0  0  0  0  0
    6.5075   -5.3598   23.0386 C   0  0  0  0  0  0  0  0  0  0  0  0
    6.7620   -4.0155   23.6534 C   0  0  0  0  0  0  0  0  0  0  0  0
    6.2277   -3.7023   25.0196 C   0  0  0  0  0  0  0  0  0  0  0  0
   10.9141    2.7955   21.8627 C   0  0  0  0  0  0  0  0  0  0  0  0
   10.6001    6.3773   23.5425 C   0  0  0  0  0  0  0  0  0  0  0  0
   10.2229    5.0680   22.9153 N   0  0  0  0  0  0  0  0  0  0  0  0
   11.2912    4.1048   22.4899 C   0  0  0  0  0  0  0  0  0  0  0  0
   12.7368    4.4510   22.6916 O   0  0  0  0  0  0  0  0  0  0  0  0
    9.2742    4.8407   22.7830 H   0  0  0  0  0  0  0  0  0  0  0  0
    7.7359    1.8180   22.6562 C   0  0  0  0  0  0  0  0  0  0  0  0
    6.4436    2.1335   21.9632 N   0  0  0  0  0  0  0  0  0  0  0  0
    5.8150    2.7772   22.3631 H   0  0  0  0  0  0  0  0  0  0  0  0
    6.1089    1.4684   20.6611 C   0  0  0  0  0  0  0  0  0  0  0  0
    4.8035    1.7617   19.9829 C   0  0  0  0  0  0  0  0  0  0  0  0
    4.4687    1.0966   18.6808 C   0  0  0  0  0  0  0  0  0  0  0  0
    5.4394    0.1382   18.0568 N   0  0  0  0  0  0  0  0  0  0  0  0
    6.7448   -0.1550   18.7350 C   0  0  0  0  0  0  0  0  0  0  0  0
    7.0795    0.5101   20.0371 N   0  0  0  0  0  0  0  0  0  0  0  0
 29 30  1  0  0  0
 30 31  1  0  0  0
 31 32  2  0  0  0
 31 28  1  0  0  0
 28  1  1  0  0  0
  1  2  1  0  0  0
  3  2  1  0  0  0
  3  4  1  0  0  0
  4  5  2  0  0  0
  4  6  1  0  0  0
  6 18  1  0  0  0
 18 19  2  0  0  0
 19 20  1  0  0  0
 20 21  2  0  0  0
 21 22  1  0  0  0
 22 23  2  0  0  0
 23 24  1  0  0  0
 24 25  2  0  0  0
 25 26  1  0  0  0
 26 27  2  0  0  0
  6  7  1  0  0  0
  7  8  1  0  0  0
  8 34  1  0  0  0
 34 35  1  0  0  0
 35 37  1  0  0  0
 37 38  2  0  0  0
 38 39  1  0  0  0
 39 40  2  0  0  0
 40 41  1  0  0  0
 41 42  2  0  0  0
  3  9  1  0  0  0
  9 10  2  0  0  0
 10 11  1  0  0  0
 11 12  1  0  0  0
 11 13  2  0  0  0
 13 14  1  0  0  0
 14 15  2  0  0  0
 15 16  1  0  0  0
 16 17  2  0  0  0
 16  1  1  0  0  0
  8  3  1  0  0  0
 42 37  1  0  0  0
 15  9  1  0  0  0
 27 18  1  0  0  0
 27 22  1  0  0  0
 30 33  1  0  0  0
 35 36  1  0  0  0
M  END
> <minimizedAffinity>
-9.30584

> <CNNscore>
0.1923583895

> <CNNaffinity>
7.0697417259

> <CNN_VS>
1.3599240780

> <CNNaffinity_variance>
0.0995132849

$$$$



 42 47  0  0  0  0  0  0  0  0999 V2000
   10.6539    1.4949   22.8173 N   0  0  0  0  0  0  0  0  0  0  0  0
    9.2558    1.1509   23.2380 C   0  0  0  0  0  0  0  0  0  0  0  0
    9.0148    0.0023   24.1722 C   0  0  0  0  0  0  0  0  0  0  0  0
    8.6210   -1.1121   25.0956 C   0  0  0  0  0  0  0  0  0  0  0  0
    9.1274   -2.0039   25.7473 O   0  0  0  0  0  0  0  0  0  0  0  0
    7.1278   -1.0909   25.2375 N   0  0  0  0  0  0  0  0  0  0  0  0
    6.5989    0.0367   24.4016 C   0  0  0  0  0  0  0  0  0  0  0  0
    7.7651    0.7123   23.7432 C   0  0  0  0  0  0  0  0  0  0  0  0
   10.1720   -0.8022   24.6857 C   0  0  0  0  0  0  0  0  0  0  0  0
    9.9311   -1.9508   25.6199 C   0  0  0  0  0  0  0  0  0  0  0  0
   11.0882   -2.7553   26.1334 C   0  0  0  0  0  0  0  0  0  0  0  0
   10.8473   -3.9039   27.0677 Cl  0  0  0  0  0  0  0  0  0  0  0  0
   12.4863   -2.4112   25.7127 C   0  0  0  0  0  0  0  0  0  0  0  0
   12.7273   -1.2627   24.7786 C   0  0  0  0  0  0  0  0  0  0  0  0
   11.5701   -0.4582   24.2650 C   0  0  0  0  0  0  0  0  0  0  0  0
   11.8110    0.6904   23.3308 C   0  0  0  0  0  0  0  0  0  0  0  0
   13.2091    1.0345   22.9101 O   0  0  0  0  0  0  0  0  0  0  0  0
    6.3077   -2.0321   26.0691 C   0  0  0  0  0  0  0  0  0  0  0  0
    6.0709   -3.4366   25.5988 C   0  0  0  0  0  0  0  0  0  0  0  0
    5.2507   -4.3778   26.4305 N   0  0  0  0  0  0  0  0  0  0  0  0
    4.6675   -3.9144   27.7324 C   0  0  0  0  0  0  0  0  0  0  0  0
    4.9044   -2.5098   28.2027 C   0  0  0  0  0  0  0  0  0  0  0  0
    4.3211   -2.0464   29.5047 C   0  0  0  0  0  0  0  0  0  0  0  0
    4.5580   -0.6419   29.9749 C   0  0  0  0  0  0  0  0  0  0  0  0
    5.3781    0.2993   29.1433 C   0  0  0  0  0  0  0  0  0  0  0  0
    5.9614   -0.1641   27.8413 C   0  0  0  0  0  0  0  0  0  0  0  0
    5.7245   -1.5687   27.3710 C   0  0  0  0  0  0  0  0  0  0  0  0
   10.8948    2.6435   21.8830 C   0  0  0  0  0  0  0  0  0  0  0  0
   10.6805    6.3000   23.4108 C   0  0  0  0  0  0  0  0  0  0  0  0
   10.2669    4.9647   22.8667 N   0  0  0  0  0  0  0  0  0  0  0  0
   11.3083    3.9788   22.4271 C   0  0  0  0  0  0  0  0  0  0  0  0
   12.7634    4.3280   22.5316 O   0  0  0  0  0  0  0  0  0  0  0  0
    9.3119    4.7355   22.7982 H   0  0  0  0  0  0  0  0  0  0  0  0
    7.6940    1.8911   22.8183 C   0  0  0  0  0  0  0  0  0  0  0  0
    6.4308    2.1750   22.0609 N   0  0  0  0  0  0  0  0  0  0  0  0
    5.7858    2.8326   22.4084 H   0  0  0  0  0  0  0  0  0  0  0  0
    6.1504    1.4571   20.7740 C   0  0  0  0  0  0  0  0  0  0  0  0
    4.8528    1.6834   20.0564 C   0  0  0  0  0  0  0  0  0  0  0  0
    4.5723    0.9655   18.7696 C   0  0  0  0  0  0  0  0  0  0  0  0
    5.5895    0.0214   18.2003 N   0  0  0  0  0  0  0  0  0  0  0  0
    6.8871   -0.2048   18.9179 C   0  0  0  0  0  0  0  0  0  0  0  0
    7.1676    0.5130   20.2048 N   0  0  0  0  0  0  0  0  0  0  0  0
 29 30  1  0  0  0
 30 31  1  0  0  0
 31 32  2  0  0  0
 31 28  1  0  0  0
 28  1  1  0  0  0
  1  2  1  0  0  0
  3  2  1  0  0  0
  3  4  1  0  0  0
  4  5  2  0  0  0
  4  6  1  0  0  0
  6 18  1  0  0  0
 18 19  2  0  0  0
 19 20  1  0  0  0
 20 21  2  0  0  0
 21 22  1  0  0  0
 22 23  2  0  0  0
 23 24  1  0  0  0
 24 25  2  0  0  0
 25 26  1  0  0  0
 26 27  2  0  0  0
  6  7  1  0  0  0
  7  8  1  0  0  0
  8 34  1  0  0  0
 34 35  1  0  0  0
 35 37  1  0  0  0
 37 38  2  0  0  0
 38 39  1  0  0  0
 39 40  2  0  0  0
 40 41  1  0  0  0
 41 42  2  0  0  0
  3  9  1  0  0  0
  9 10  2  0  0  0
 10 11  1  0  0  0
 11 12  1  0  0  0
 11 13  2  0  0  0
 13 14  1  0  0  0
 14 15  2  0  0  0
 15 16  1  0  0  0
 16 17  2  0  0  0
 16  1  1  0  0  0
  8  3  1  0  0  0
 42 37  1  0  0  0
 15  9  1  0  0  0
 27 18  1  0  0  0
 27 22  1  0  0  0
 30 33  1  0  0  0
 35 36  1  0  0  0
M  END
> <minimizedAffinity>
-8.91490

> <CNNscore>
0.1564063728

> <CNNaffinity>
6.8409566879

> <CNN_VS>
1.0699691772

> <CNNaffinity_variance>
0.1146419272

$$$$



 42 47  0  0  0  0  0  0  0  0999 V2000
    5.3427    3.5788   23.0499 N   0  0  0  0  0  0  0  0  0  0  0  0
    5.9941    2.2298   23.1275 C   0  0  0  0  0  0  0  0  0  0  0  0
    7.4895    2.1203   23.1676 C   0  0  0  0  0  0  0  0  0  0  0  0
    8.9651    1.8551   23.2145 C   0  0  0  0  0  0  0  0  0  0  0  0
   10.0198    2.4584   23.2114 O   0  0  0  0  0  0  0  0  0  0  0  0
    9.1673    0.3706   23.2878 N   0  0  0  0  0  0  0  0  0  0  0  0
    7.8166   -0.2818   23.2862 C   0  0  0  0  0  0  0  0  0  0  0  0
    6.7797    0.7996   23.2120 C   0  0  0  0  0  0  0  0  0  0  0  0
    8.3337    3.3597   23.1302 C   0  0  0  0  0  0  0  0  0  0  0  0
    9.8291    3.2501   23.1703 C   0  0  0  0  0  0  0  0  0  0  0  0
   10.6731    4.4895   23.1329 C   0  0  0  0  0  0  0  0  0  0  0  0
   12.1686    4.3800   23.1730 Cl  0  0  0  0  0  0  0  0  0  0  0  0
   10.0217    5.8385   23.0553 C   0  0  0  0  0  0  0  0  0  0  0  0
    8.5263    5.9480   23.0152 C   0  0  0  0  0  0  0  0  0  0  0  0
    7.6823    4.7086   23.0526 C   0  0  0  0  0  0  0  0  0  0  0  0
    6.1868    4.8182   23.0125 C   0  0  0  0  0  0  0  0  0  0  0  0
    5.5354    6.1671   22.9349 O   0  0  0  0  0  0  0  0  0  0  0  0
   10.4882   -0.3373   23.3515 C   0  0  0  0  0  0  0  0  0  0  0  0
   11.5569   -0.0227   22.3470 C   0  0  0  0  0  0  0  0  0  0  0  0
   12.8778   -0.7306   22.4107 N   0  0  0  0  0  0  0  0  0  0  0  0
   13.1300   -1.7531   23.4788 C   0  0  0  0  0  0  0  0  0  0  0  0
   12.0613   -2.0677   24.4832 C   0  0  0  0  0  0  0  0  0  0  0  0
   12.3136   -3.0902   25.5514 C   0  0  0  0  0  0  0  0  0  0  0  0
   11.2448   -3.4048   26.5558 C   0  0  0  0  0  0  0  0  0  0  0  0
    9.9239   -2.6969   26.4921 C   0  0  0  0  0  0  0  0  0  0  0  0
    9.6717   -1.6744   25.4240 C   0  0  0  0  0  0  0  0  0  0  0  0
   10.7404   -1.3598   24.4196 C   0  0  0  0  0  0  0  0  0  0  0  0
    3.8472    3.6883   23.0098 C   0  0  0  0  0  0  0  0  0  0  0  0
    1.9395    6.6805   21.2330 C   0  0  0  0  0  0  0  0  0  0  0  0
    2.6027    5.8538   22.2944 N   0  0  0  0  0  0  0  0  0  0  0  0
    3.1840    4.5150   21.9483 C   0  0  0  0  0  0  0  0  0  0  0  0
    3.1021    4.0030   20.5408 O   0  0  0  0  0  0  0  0  0  0  0  0
    2.6565    6.1898   23.2182 H   0  0  0  0  0  0  0  0  0  0  0  0
    5.2938    0.5960   23.1865 C   0  0  0  0  0  0  0  0  0  0  0  0
    4.6711   -0.2516   22.1172 N   0  0  0  0  0  0  0  0  0  0  0  0
    4.0352   -0.9627   22.3607 H   0  0  0  0  0  0  0  0  0  0  0  0
    5.0171   -0.0160   20.6768 C   0  0  0  0  0  0  0  0  0  0  0  0
    4.1939    0.9291   19.8526 C   0  0  0  0  0  0  0  0  0  0  0  0
    4.5399    1.1648   18.4123 C   0  0  0  0  0  0  0  0  0  0  0  0
    5.7091    0.4554   17.7960 N   0  0  0  0  0  0  0  0  0  0  0  0
    6.5323   -0.4897   18.6201 C   0  0  0  0  0  0  0  0  0  0  0  0
    6.1862   -0.7254   20.0605 N   0  0  0  0  0  0  0  0  0  0  0  0
 29 30  1  0  0  0
 30 31  1  0  0  0
 31 32  2  0  0  0
 31 28  1  0  0  0
 28  1  1  0  0  0
  1  2  1  0  0  0
  3  2  1  0  0  0
  3  4  1  0  0  0
  4  5  2  0  0  0
  4  6  1  0  0  0
  6 18  1  0  0  0
 18 19  2  0  0  0
 19 20  1  0  0  0
 20 21  2  0  0  0
 21 22  1  0  0  0
 22 23  2  0  0  0
 23 24  1  0  0  0
 24 25  2  0  0  0
 25 26  1  0  0  0
 26 27  2  0  0  0
  6  7  1  0  0  0
  7  8  1  0  0  0
  8 34  1  0  0  0
 34 35  1  0  0  0
 35 37  1  0  0  0
 37 38  2  0  0  0
 38 39  1  0  0  0
 39 40  2  0  0  0
 40 41  1  0  0  0
 41 42  2  0  0  0
  3  9  1  0  0  0
  9 10  2  0  0  0
 10 11  1  0  0  0
 11 12  1  0  0  0
 11 13  2  0  0  0
 13 14  1  0  0  0
 14 15  2  0  0  0
 15 16  1  0  0  0
 16 17  2  0  0  0
 16  1  1  0  0  0
  8  3  1  0  0  0
 42 37  1  0  0  0
 15  9  1  0  0  0
 27 18  1  0  0  0
 27 22  1  0  0  0
 30 33  1  0  0  0
 35 36  1  0  0  0
M  END
> <minimizedAffinity>
-8.13845

> <CNNscore>
0.1478544772

> <CNNaffinity>
6.4732656479

> <CNN_VS>
0.9571012855

> <CNNaffinity_variance>
0.2090361565

$$$$
