


 28 31  0  0  0  0  0  0  0  0999 V2000
   -6.4052   -2.2681  -21.7630 N   0  0  0  0  0  0  0  0  0  0  0  0
   -6.1151   -3.7355  -21.8746 C   0  0  0  0  0  0  0  0  0  0  0  0
   -5.3321   -4.4291  -20.7994 O   0  0  0  0  0  0  0  0  0  0  0  0
   -6.9190   -1.8128  -22.4687 H   0  0  0  0  0  0  0  0  0  0  0  0
   -6.6079   -4.5094  -23.0613 C   0  0  0  0  0  0  0  0  0  0  0  0
   -5.7160   -5.5183  -23.7218 C   0  0  0  0  0  0  0  0  0  0  0  0
   -6.2088   -6.2922  -24.9085 N   0  0  0  0  0  0  0  0  0  0  0  0
   -7.5937   -6.0571  -25.4346 S   0  0  0  0  0  0  0  0  0  0  0  0
   -8.8162   -6.1882  -26.2938 O   0  0  0  0  0  0  0  0  0  0  0  0
   -7.1262   -7.1116  -26.3936 O   0  0  0  0  0  0  0  0  0  0  0  0
   -8.4857   -5.0481  -24.7741 C   0  0  0  0  0  0  0  0  0  0  0  0
   -9.8706   -4.8130  -25.3003 C   0  0  0  0  0  0  0  0  0  0  0  0
  -10.7626   -3.8041  -24.6397 C   0  0  0  0  0  0  0  0  0  0  0  0
  -10.2697   -3.0302  -23.4530 C   0  0  0  0  0  0  0  0  0  0  0  0
  -11.1618   -2.0212  -22.7925 Cl  0  0  0  0  0  0  0  0  0  0  0  0
   -8.8849   -3.2653  -22.9269 C   0  0  0  0  0  0  0  0  0  0  0  0
   -7.9929   -4.2742  -23.5874 C   0  0  0  0  0  0  0  0  0  0  0  0
   -5.6022   -6.9782  -25.3576 H   0  0  0  0  0  0  0  0  0  0  0  0
   -4.3603   -0.3950  -23.3788 C   0  0  0  0  0  0  0  0  0  0  0  0
   -4.1716    0.0957  -21.9739 N   0  0  0  0  0  0  0  0  0  0  0  0
   -3.2403    1.1883  -21.5393 N   0  0  0  0  0  0  0  0  0  0  0  0
   -3.3742    1.3478  -20.0538 C   0  0  0  0  0  0  0  0  0  0  0  0
   -4.3882    0.3539  -19.5704 C   0  0  0  0  0  0  0  0  0  0  0  0
   -4.9266    0.0535  -18.2029 C   0  0  0  0  0  0  0  0  0  0  0  0
   -5.9577   -1.0207  -18.0222 N   0  0  0  0  0  0  0  0  0  0  0  0
   -6.4506   -1.7946  -19.2089 C   0  0  0  0  0  0  0  0  0  0  0  0
   -5.9123   -1.4942  -20.5763 C   0  0  0  0  0  0  0  0  0  0  0  0
   -4.8811   -0.4199  -20.7571 C   0  0  0  0  0  0  0  0  0  0  0  0
 19 20  1  0  0  0
 20 21  1  0  0  0
 21 22  2  0  0  0
 22 23  1  0  0  0
 23 24  2  0  0  0
 24 25  1  0  0  0
 25 26  2  0  0  0
 26 27  1  0  0  0
 27  1  1  0  0  0
  1  2  1  0  0  0
  2  3  2  0  0  0
  5  2  1  0  0  0
  5  6  1  0  0  0
  6  7  1  0  0  0
  7  8  1  0  0  0
  8  9  2  0  0  0
  8 10  2  0  0  0
  8 11  1  0  0  0
 11 12  2  0  0  0
 12 13  1  0  0  0
 13 14  2  0  0  0
 14 15  1  0  0  0
 14 16  1  0  0  0
 16 17  2  0  0  0
 27 28  2  0  0  0
 28 20  1  0  0  0
 28 23  1  0  0  0
 17  5  1  0  0  0
 17 11  1  0  0  0
  1  4  1  0  0  0
  7 18  1  0  0  0
M  END
> <minimizedAffinity>
-8.39562

> <CNNscore>
0.4152792096

> <CNNaffinity>
5.6977820396

> <CNN_VS>
2.3661704063

> <CNNaffinity_variance>
0.1940233856

$$$$



 28 31  0  0  0  0  0  0  0  0999 V2000
   -6.7089   -0.3222  -22.2681 N   0  0  0  0  0  0  0  0  0  0  0  0
   -6.1970   -0.0640  -20.8821 C   0  0  0  0  0  0  0  0  0  0  0  0
   -7.0432   -0.4112  -19.6931 O   0  0  0  0  0  0  0  0  0  0  0  0
   -6.1535   -0.0943  -23.0484 H   0  0  0  0  0  0  0  0  0  0  0  0
   -4.8388    0.5413  -20.6849 C   0  0  0  0  0  0  0  0  0  0  0  0
   -4.4585    1.1119  -19.3508 C   0  0  0  0  0  0  0  0  0  0  0  0
   -3.1003    1.7172  -19.1536 N   0  0  0  0  0  0  0  0  0  0  0  0
   -2.1224    1.7519  -20.2904 S   0  0  0  0  0  0  0  0  0  0  0  0
   -0.8601    2.0167  -21.0563 O   0  0  0  0  0  0  0  0  0  0  0  0
   -1.3037    2.4145  -19.2223 O   0  0  0  0  0  0  0  0  0  0  0  0
   -2.5026    1.1813  -21.6246 C   0  0  0  0  0  0  0  0  0  0  0  0
   -1.5247    1.2160  -22.7614 C   0  0  0  0  0  0  0  0  0  0  0  0
   -1.9050    0.6453  -24.0954 C   0  0  0  0  0  0  0  0  0  0  0  0
   -3.2632    0.0400  -24.2926 C   0  0  0  0  0  0  0  0  0  0  0  0
   -3.6434   -0.5306  -25.6268 Cl  0  0  0  0  0  0  0  0  0  0  0  0
   -4.2411    0.0053  -23.1558 C   0  0  0  0  0  0  0  0  0  0  0  0
   -3.8608    0.5760  -21.8218 C   0  0  0  0  0  0  0  0  0  0  0  0
   -2.8417    2.1053  -18.2464 H   0  0  0  0  0  0  0  0  0  0  0  0
   -8.1616    2.3657  -23.2508 C   0  0  0  0  0  0  0  0  0  0  0  0
   -9.2896    1.3782  -23.3024 N   0  0  0  0  0  0  0  0  0  0  0  0
  -10.6999    1.6717  -23.7205 N   0  0  0  0  0  0  0  0  0  0  0  0
  -11.4871    0.3988  -23.6215 C   0  0  0  0  0  0  0  0  0  0  0  0
  -10.5634   -0.6814  -23.1422 C   0  0  0  0  0  0  0  0  0  0  0  0
  -10.7835   -2.1381  -22.8598 C   0  0  0  0  0  0  0  0  0  0  0  0
   -9.6455   -2.9894  -22.3802 N   0  0  0  0  0  0  0  0  0  0  0  0
   -8.2873   -2.3841  -22.1830 C   0  0  0  0  0  0  0  0  0  0  0  0
   -8.0671   -0.9275  -22.4653 C   0  0  0  0  0  0  0  0  0  0  0  0
   -9.2052   -0.0761  -22.9450 C   0  0  0  0  0  0  0  0  0  0  0  0
 19 20  1  0  0  0
 20 21  1  0  0  0
 21 22  2  0  0  0
 22 23  1  0  0  0
 23 24  2  0  0  0
 24 25  1  0  0  0
 25 26  2  0  0  0
 26 27  1  0  0  0
 27  1  1  0  0  0
  1  2  1  0  0  0
  2  3  2  0  0  0
  5  2  1  0  0  0
  5  6  1  0  0  0
  6  7  1  0  0  0
  7  8  1  0  0  0
  8  9  2  0  0  0
  8 10  2  0  0  0
  8 11  1  0  0  0
 11 12  2  0  0  0
 12 13  1  0  0  0
 13 14  2  0  0  0
 14 15  1  0  0  0
 14 16  1  0  0  0
 16 17  2  0  0  0
 27 28  2  0  0  0
 28 20  1  0  0  0
 28 23  1  0  0  0
 17  5  1  0  0  0
 17 11  1  0  0  0
  1  4  1  0  0  0
  7 18  1  0  0  0
M  END
> <minimizedAffinity>
-7.23237

> <CNNscore>
0.4037227631

> <CNNaffinity>
5.4744558334

> <CNN_VS>
2.2101624012

> <CNNaffinity_variance>
0.1284970939

$$$$



 28 31  0  0  0  0  0  0  0  0999 V2000
   -7.8502   -2.1567  -23.1247 N   0  0  0  0  0  0  0  0  0  0  0  0
   -8.3636   -1.1309  -22.1582 C   0  0  0  0  0  0  0  0  0  0  0  0
   -8.1111   -1.2926  -20.6884 O   0  0  0  0  0  0  0  0  0  0  0  0
   -8.0160   -2.0505  -24.0893 H   0  0  0  0  0  0  0  0  0  0  0  0
   -9.1295    0.0566  -22.6613 C   0  0  0  0  0  0  0  0  0  0  0  0
   -8.4197    1.3527  -22.9189 C   0  0  0  0  0  0  0  0  0  0  0  0
   -9.1856    2.5402  -23.4221 N   0  0  0  0  0  0  0  0  0  0  0  0
  -10.6613    2.4316  -23.6677 S   0  0  0  0  0  0  0  0  0  0  0  0
  -12.0592    2.8201  -24.0487 O   0  0  0  0  0  0  0  0  0  0  0  0
  -10.4370    3.8626  -24.0576 O   0  0  0  0  0  0  0  0  0  0  0  0
  -11.3712    1.1355  -23.4101 C   0  0  0  0  0  0  0  0  0  0  0  0
  -12.8470    1.0270  -23.6558 C   0  0  0  0  0  0  0  0  0  0  0  0
  -13.5568   -0.2690  -23.3982 C   0  0  0  0  0  0  0  0  0  0  0  0
  -12.7909   -1.4566  -22.8950 C   0  0  0  0  0  0  0  0  0  0  0  0
  -13.5008   -2.7526  -22.6375 Cl  0  0  0  0  0  0  0  0  0  0  0  0
  -11.3151   -1.3480  -22.6494 C   0  0  0  0  0  0  0  0  0  0  0  0
  -10.6053   -0.0520  -22.9070 C   0  0  0  0  0  0  0  0  0  0  0  0
   -8.7029    3.4215  -23.5972 H   0  0  0  0  0  0  0  0  0  0  0  0
   -9.3315   -4.3407  -24.9513 C   0  0  0  0  0  0  0  0  0  0  0  0
   -8.3610   -5.1940  -24.1896 N   0  0  0  0  0  0  0  0  0  0  0  0
   -8.2017   -6.6797  -24.3209 N   0  0  0  0  0  0  0  0  0  0  0  0
   -7.1218   -7.1154  -23.3755 C   0  0  0  0  0  0  0  0  0  0  0  0
   -6.6137   -5.8990  -22.6599 C   0  0  0  0  0  0  0  0  0  0  0  0
   -5.5525   -5.7192  -21.6151 C   0  0  0  0  0  0  0  0  0  0  0  0
   -5.2572   -4.3519  -21.0735 N   0  0  0  0  0  0  0  0  0  0  0  0
   -6.0231   -3.1644  -21.5767 C   0  0  0  0  0  0  0  0  0  0  0  0
   -7.0843   -3.3442  -22.6215 C   0  0  0  0  0  0  0  0  0  0  0  0
   -7.3796   -4.7115  -23.1631 C   0  0  0  0  0  0  0  0  0  0  0  0
 19 20  1  0  0  0
 20 21  1  0  0  0
 21 22  2  0  0  0
 22 23  1  0  0  0
 23 24  2  0  0  0
 24 25  1  0  0  0
 25 26  2  0  0  0
 26 27  1  0  0  0
 27  1  1  0  0  0
  1  2  1  0  0  0
  2  3  2  0  0  0
  5  2  1  0  0  0
  5  6  1  0  0  0
  6  7  1  0  0  0
  7  8  1  0  0  0
  8  9  2  0  0  0
  8 10  2  0  0  0
  8 11  1  0  0  0
 11 12  2  0  0  0
 12 13  1  0  0  0
 13 14  2  0  0  0
 14 15  1  0  0  0
 14 16  1  0  0  0
 16 17  2  0  0  0
 27 28  2  0  0  0
 28 20  1  0  0  0
 28 23  1  0  0  0
 17  5  1  0  0  0
 17 11  1  0  0  0
  1  4  1  0  0  0
  7 18  1  0  0  0
M  END
> <minimizedAffinity>
-7.30758

> <CNNscore>
0.3936535120

> <CNNaffinity>
5.7657713890

> <CNN_VS>
2.2697162628

> <CNNaffinity_variance>
0.1253085583

$$$$



 28 31  0  0  0  0  0  0  0  0999 V2000
   -7.2221   -3.0975  -22.4454 N   0  0  0  0  0  0  0  0  0  0  0  0
   -6.1168   -3.2380  -21.4413 C   0  0  0  0  0  0  0  0  0  0  0  0
   -5.3827   -4.5397  -21.3111 O   0  0  0  0  0  0  0  0  0  0  0  0
   -7.7039   -2.2432  -22.5309 H   0  0  0  0  0  0  0  0  0  0  0  0
   -5.7454   -2.0769  -20.5672 C   0  0  0  0  0  0  0  0  0  0  0  0
   -6.1145   -2.0844  -19.1134 C   0  0  0  0  0  0  0  0  0  0  0  0
   -5.7431   -0.9233  -18.2394 N   0  0  0  0  0  0  0  0  0  0  0  0
   -5.0026    0.2452  -18.8192 S   0  0  0  0  0  0  0  0  0  0  0  0
   -4.3063    1.5711  -18.9043 O   0  0  0  0  0  0  0  0  0  0  0  0
   -5.1299    0.6983  -17.3949 O   0  0  0  0  0  0  0  0  0  0  0  0
   -4.6335    0.2527  -20.2731 C   0  0  0  0  0  0  0  0  0  0  0  0
   -3.8930    1.4212  -20.8529 C   0  0  0  0  0  0  0  0  0  0  0  0
   -3.5239    1.4286  -22.3067 C   0  0  0  0  0  0  0  0  0  0  0  0
   -3.8953    0.2675  -23.1807 C   0  0  0  0  0  0  0  0  0  0  0  0
   -3.5261    0.2750  -24.6346 Cl  0  0  0  0  0  0  0  0  0  0  0  0
   -4.6357   -0.9010  -22.6009 C   0  0  0  0  0  0  0  0  0  0  0  0
   -5.0048   -0.9084  -21.1471 C   0  0  0  0  0  0  0  0  0  0  0  0
   -5.9941   -0.9283  -17.2508 H   0  0  0  0  0  0  0  0  0  0  0  0
   -8.3604   -1.3578  -24.8905 C   0  0  0  0  0  0  0  0  0  0  0  0
   -8.5611   -2.7554  -25.3968 N   0  0  0  0  0  0  0  0  0  0  0  0
   -9.1516   -3.1368  -26.7219 N   0  0  0  0  0  0  0  0  0  0  0  0
   -9.1620   -4.6341  -26.8110 C   0  0  0  0  0  0  0  0  0  0  0  0
   -8.5780   -5.1781  -25.5411 C   0  0  0  0  0  0  0  0  0  0  0  0
   -8.3363   -6.5808  -25.0676 C   0  0  0  0  0  0  0  0  0  0  0  0
   -7.7233   -6.8223  -23.7201 N   0  0  0  0  0  0  0  0  0  0  0  0
   -7.3519   -5.6612  -22.8460 C   0  0  0  0  0  0  0  0  0  0  0  0
   -7.5935   -4.2586  -23.3195 C   0  0  0  0  0  0  0  0  0  0  0  0
   -8.2066   -4.0170  -24.6671 C   0  0  0  0  0  0  0  0  0  0  0  0
 19 20  1  0  0  0
 20 21  1  0  0  0
 21 22  2  0  0  0
 22 23  1  0  0  0
 23 24  2  0  0  0
 24 25  1  0  0  0
 25 26  2  0  0  0
 26 27  1  0  0  0
 27  1  1  0  0  0
  1  2  1  0  0  0
  2  3  2  0  0  0
  5  2  1  0  0  0
  5  6  1  0  0  0
  6  7  1  0  0  0
  7  8  1  0  0  0
  8  9  2  0  0  0
  8 10  2  0  0  0
  8 11  1  0  0  0
 11 12  2  0  0  0
 12 13  1  0  0  0
 13 14  2  0  0  0
 14 15  1  0  0  0
 14 16  1  0  0  0
 16 17  2  0  0  0
 27 28  2  0  0  0
 28 20  1  0  0  0
 28 23  1  0  0  0
 17  5  1  0  0  0
 17 11  1  0  0  0
  1  4  1  0  0  0
  7 18  1  0  0  0
M  END
> <minimizedAffinity>
-7.85661

> <CNNscore>
0.3697097898

> <CNNaffinity>
5.6551694870

> <CNN_VS>
2.0907714367

> <CNNaffinity_variance>
0.1367356479

$$$$



 28 31  0  0  0  0  0  0  0  0999 V2000
   -5.5199   -2.0391  -22.0095 N   0  0  0  0  0  0  0  0  0  0  0  0
   -6.4154   -1.4657  -23.0674 C   0  0  0  0  0  0  0  0  0  0  0  0
   -7.1042   -0.1533  -22.8366 O   0  0  0  0  0  0  0  0  0  0  0  0
   -5.0678   -2.9004  -22.1610 H   0  0  0  0  0  0  0  0  0  0  0  0
   -6.6221   -2.2047  -24.3563 C   0  0  0  0  0  0  0  0  0  0  0  0
   -5.4880   -2.3514  -25.3269 C   0  0  0  0  0  0  0  0  0  0  0  0
   -5.6947   -3.0904  -26.6158 N   0  0  0  0  0  0  0  0  0  0  0  0
   -7.0355   -3.6827  -26.9340 S   0  0  0  0  0  0  0  0  0  0  0  0
   -8.1124   -4.4141  -27.6792 O   0  0  0  0  0  0  0  0  0  0  0  0
   -6.2754   -4.0834  -28.1635 O   0  0  0  0  0  0  0  0  0  0  0  0
   -8.1698   -3.5360  -25.9634 C   0  0  0  0  0  0  0  0  0  0  0  0
   -9.5106   -4.1282  -26.2816 C   0  0  0  0  0  0  0  0  0  0  0  0
  -10.6447   -3.9815  -25.3109 C   0  0  0  0  0  0  0  0  0  0  0  0
  -10.4380   -3.2425  -24.0221 C   0  0  0  0  0  0  0  0  0  0  0  0
  -11.5722   -3.0958  -23.0514 Cl  0  0  0  0  0  0  0  0  0  0  0  0
   -9.0971   -2.6503  -23.7038 C   0  0  0  0  0  0  0  0  0  0  0  0
   -7.9630   -2.7970  -24.6745 C   0  0  0  0  0  0  0  0  0  0  0  0
   -4.9235   -3.1902  -27.2759 H   0  0  0  0  0  0  0  0  0  0  0  0
   -3.5261    0.1842  -23.1852 C   0  0  0  0  0  0  0  0  0  0  0  0
   -3.6121    0.5896  -21.7435 N   0  0  0  0  0  0  0  0  0  0  0  0
   -2.9073    1.7531  -21.1113 N   0  0  0  0  0  0  0  0  0  0  0  0
   -3.2776    1.7853  -19.6581 C   0  0  0  0  0  0  0  0  0  0  0  0
   -4.2111    0.6418  -19.3922 C   0  0  0  0  0  0  0  0  0  0  0  0
   -4.8997    0.1779  -18.1429 C   0  0  0  0  0  0  0  0  0  0  0  0
   -5.7950   -1.0250  -18.1825 N   0  0  0  0  0  0  0  0  0  0  0  0
   -6.0017   -1.7639  -19.4714 C   0  0  0  0  0  0  0  0  0  0  0  0
   -5.3131   -1.3001  -20.7206 C   0  0  0  0  0  0  0  0  0  0  0  0
   -4.4178   -0.0972  -20.6811 C   0  0  0  0  0  0  0  0  0  0  0  0
 19 20  1  0  0  0
 20 21  1  0  0  0
 21 22  2  0  0  0
 22 23  1  0  0  0
 23 24  2  0  0  0
 24 25  1  0  0  0
 25 26  2  0  0  0
 26 27  1  0  0  0
 27  1  1  0  0  0
  1  2  1  0  0  0
  2  3  2  0  0  0
  5  2  1  0  0  0
  5  6  1  0  0  0
  6  7  1  0  0  0
  7  8  1  0  0  0
  8  9  2  0  0  0
  8 10  2  0  0  0
  8 11  1  0  0  0
 11 12  2  0  0  0
 12 13  1  0  0  0
 13 14  2  0  0  0
 14 15  1  0  0  0
 14 16  1  0  0  0
 16 17  2  0  0  0
 27 28  2  0  0  0
 28 20  1  0  0  0
 28 23  1  0  0  0
 17  5  1  0  0  0
 17 11  1  0  0  0
  1  4  1  0  0  0
  7 18  1  0  0  0
M  END
> <minimizedAffinity>
-7.62222

> <CNNscore>
0.3357922435

> <CNNaffinity>
5.4350790977

> <CNN_VS>
1.8250573874

> <CNNaffinity_variance>
0.1369617879

$$$$



 28 31  0  0  0  0  0  0  0  0999 V2000
   -6.7660   -3.6990  -22.5587 N   0  0  0  0  0  0  0  0  0  0  0  0
   -6.4572   -2.2317  -22.5993 C   0  0  0  0  0  0  0  0  0  0  0  0
   -6.4568   -1.5014  -23.9096 O   0  0  0  0  0  0  0  0  0  0  0  0
   -6.7663   -4.1784  -21.6987 H   0  0  0  0  0  0  0  0  0  0  0  0
   -6.1489   -1.4947  -21.3298 C   0  0  0  0  0  0  0  0  0  0  0  0
   -6.9798   -1.7325  -20.1038 C   0  0  0  0  0  0  0  0  0  0  0  0
   -6.6714   -0.9955  -18.8343 N   0  0  0  0  0  0  0  0  0  0  0  0
   -5.5322   -0.0207  -18.7907 S   0  0  0  0  0  0  0  0  0  0  0  0
   -4.5649    0.9940  -18.2570 O   0  0  0  0  0  0  0  0  0  0  0  0
   -6.0272    0.0939  -17.3793 O   0  0  0  0  0  0  0  0  0  0  0  0
   -4.7013    0.2171  -20.0167 C   0  0  0  0  0  0  0  0  0  0  0  0
   -3.5621    1.1920  -19.9732 C   0  0  0  0  0  0  0  0  0  0  0  0
   -2.7313    1.4297  -21.1992 C   0  0  0  0  0  0  0  0  0  0  0  0
   -3.0396    0.6927  -22.4687 C   0  0  0  0  0  0  0  0  0  0  0  0
   -2.2086    0.9306  -23.6947 Cl  0  0  0  0  0  0  0  0  0  0  0  0
   -4.1788   -0.2821  -22.5123 C   0  0  0  0  0  0  0  0  0  0  0  0
   -5.0096   -0.5199  -21.2863 C   0  0  0  0  0  0  0  0  0  0  0  0
   -7.2364   -1.1572  -18.0006 H   0  0  0  0  0  0  0  0  0  0  0  0
   -9.8657   -2.8803  -22.7064 C   0  0  0  0  0  0  0  0  0  0  0  0
   -9.7191   -3.7259  -23.9366 N   0  0  0  0  0  0  0  0  0  0  0  0
  -10.8051   -4.0469  -24.9203 N   0  0  0  0  0  0  0  0  0  0  0  0
  -10.2180   -4.9184  -25.9908 C   0  0  0  0  0  0  0  0  0  0  0  0
   -8.7693   -5.1360  -25.6686 C   0  0  0  0  0  0  0  0  0  0  0  0
   -7.6910   -5.9101  -26.3673 C   0  0  0  0  0  0  0  0  0  0  0  0
   -6.3044   -5.9471  -25.7964 N   0  0  0  0  0  0  0  0  0  0  0  0
   -5.9961   -5.2101  -24.5269 C   0  0  0  0  0  0  0  0  0  0  0  0
   -7.0743   -4.4360  -23.8282 C   0  0  0  0  0  0  0  0  0  0  0  0
   -8.4610   -4.3990  -24.3991 C   0  0  0  0  0  0  0  0  0  0  0  0
 19 20  1  0  0  0
 20 21  1  0  0  0
 21 22  2  0  0  0
 22 23  1  0  0  0
 23 24  2  0  0  0
 24 25  1  0  0  0
 25 26  2  0  0  0
 26 27  1  0  0  0
 27  1  1  0  0  0
  1  2  1  0  0  0
  2  3  2  0  0  0
  5  2  1  0  0  0
  5  6  1  0  0  0
  6  7  1  0  0  0
  7  8  1  0  0  0
  8  9  2  0  0  0
  8 10  2  0  0  0
  8 11  1  0  0  0
 11 12  2  0  0  0
 12 13  1  0  0  0
 13 14  2  0  0  0
 14 15  1  0  0  0
 14 16  1  0  0  0
 16 17  2  0  0  0
 27 28  2  0  0  0
 28 20  1  0  0  0
 28 23  1  0  0  0
 17  5  1  0  0  0
 17 11  1  0  0  0
  1  4  1  0  0  0
  7 18  1  0  0  0
M  END
> <minimizedAffinity>
-7.85299

> <CNNscore>
0.2944886684

> <CNNaffinity>
5.6622815132

> <CNN_VS>
1.6674777269

> <CNNaffinity_variance>
0.1683561504

$$$$



 28 31  0  0  0  0  0  0  0  0999 V2000
   -6.5417   -2.3085  -21.7441 N   0  0  0  0  0  0  0  0  0  0  0  0
   -6.2178   -3.7654  -21.8937 C   0  0  0  0  0  0  0  0  0  0  0  0
   -5.3502   -4.4489  -20.8787 O   0  0  0  0  0  0  0  0  0  0  0  0
   -7.1111   -1.8599  -22.4103 H   0  0  0  0  0  0  0  0  0  0  0  0
   -6.7614   -4.5389  -23.0583 C   0  0  0  0  0  0  0  0  0  0  0  0
   -8.1216   -4.2176  -23.6028 C   0  0  0  0  0  0  0  0  0  0  0  0
   -8.6652   -4.9911  -24.7674 N   0  0  0  0  0  0  0  0  0  0  0  0
   -7.8486   -6.0858  -25.3875 S   0  0  0  0  0  0  0  0  0  0  0  0
   -7.4572   -7.2039  -26.3076 O   0  0  0  0  0  0  0  0  0  0  0  0
   -9.0729   -6.1528  -26.2515 O   0  0  0  0  0  0  0  0  0  0  0  0
   -6.4883   -6.4072  -24.8430 C   0  0  0  0  0  0  0  0  0  0  0  0
   -5.6717   -7.5020  -25.4630 C   0  0  0  0  0  0  0  0  0  0  0  0
   -4.3115   -7.8233  -24.9186 C   0  0  0  0  0  0  0  0  0  0  0  0
   -3.7679   -7.0498  -23.7540 C   0  0  0  0  0  0  0  0  0  0  0  0
   -2.4076   -7.3712  -23.2095 Cl  0  0  0  0  0  0  0  0  0  0  0  0
   -4.5845   -5.9551  -23.1339 C   0  0  0  0  0  0  0  0  0  0  0  0
   -5.9447   -5.6337  -23.6784 C   0  0  0  0  0  0  0  0  0  0  0  0
   -9.5902   -4.7725  -25.1376 H   0  0  0  0  0  0  0  0  0  0  0  0
   -4.5113   -0.4886  -23.4371 C   0  0  0  0  0  0  0  0  0  0  0  0
   -4.2705    0.0095  -22.0428 N   0  0  0  0  0  0  0  0  0  0  0  0
   -3.3055    1.0870  -21.6459 N   0  0  0  0  0  0  0  0  0  0  0  0
   -3.3910    1.2609  -20.1585 C   0  0  0  0  0  0  0  0  0  0  0  0
   -4.4088    0.2909  -19.6361 C   0  0  0  0  0  0  0  0  0  0  0  0
   -4.9109    0.0119  -18.2504 C   0  0  0  0  0  0  0  0  0  0  0  0
   -5.9565   -1.0405  -18.0294 N   0  0  0  0  0  0  0  0  0  0  0  0
   -6.5002   -1.8140  -19.1939 C   0  0  0  0  0  0  0  0  0  0  0  0
   -5.9981   -1.5350  -20.5796 C   0  0  0  0  0  0  0  0  0  0  0  0
   -4.9524   -0.4826  -20.8007 C   0  0  0  0  0  0  0  0  0  0  0  0
 19 20  1  0  0  0
 20 21  1  0  0  0
 21 22  2  0  0  0
 22 23  1  0  0  0
 23 24  2  0  0  0
 24 25  1  0  0  0
 25 26  2  0  0  0
 26 27  1  0  0  0
 27  1  1  0  0  0
  1  2  1  0  0  0
  2  3  2  0  0  0
  5  2  1  0  0  0
  5  6  1  0  0  0
  6  7  1  0  0  0
  7  8  1  0  0  0
  8  9  2  0  0  0
  8 10  2  0  0  0
  8 11  1  0  0  0
 11 12  2  0  0  0
 12 13  1  0  0  0
 13 14  2  0  0  0
 14 15  1  0  0  0
 14 16  1  0  0  0
 16 17  2  0  0  0
 27 28  2  0  0  0
 28 20  1  0  0  0
 28 23  1  0  0  0
 17  5  1  0  0  0
 17 11  1  0  0  0
  1  4  1  0  0  0
  7 18  1  0  0  0
M  END
> <minimizedAffinity>
-7.63574

> <CNNscore>
0.2815589011

> <CNNaffinity>
5.5578413010

> <CNN_VS>
1.5648597479

> <CNNaffinity_variance>
0.0484934412

$$$$



 28 31  0  0  0  0  0  0  0  0999 V2000
   -5.9543   -1.4364  -22.5062 N   0  0  0  0  0  0  0  0  0  0  0  0
   -6.0422   -2.9153  -22.2712 C   0  0  0  0  0  0  0  0  0  0  0  0
   -5.2784   -3.5421  -21.1426 O   0  0  0  0  0  0  0  0  0  0  0  0
   -6.4557   -1.0250  -23.2469 H   0  0  0  0  0  0  0  0  0  0  0  0
   -6.8939   -3.7674  -23.1649 C   0  0  0  0  0  0  0  0  0  0  0  0
   -6.3732   -5.0813  -23.6671 C   0  0  0  0  0  0  0  0  0  0  0  0
   -7.2249   -5.9334  -24.5607 N   0  0  0  0  0  0  0  0  0  0  0  0
   -8.5973   -5.4716  -24.9521 S   0  0  0  0  0  0  0  0  0  0  0  0
   -9.9523   -5.4653  -25.5955 O   0  0  0  0  0  0  0  0  0  0  0  0
   -8.5472   -6.7834  -25.6778 O   0  0  0  0  0  0  0  0  0  0  0  0
   -9.1181   -4.1575  -24.4498 C   0  0  0  0  0  0  0  0  0  0  0  0
  -10.4904   -3.6956  -24.8411 C   0  0  0  0  0  0  0  0  0  0  0  0
  -11.0111   -2.3817  -24.3389 C   0  0  0  0  0  0  0  0  0  0  0  0
  -10.1594   -1.5296  -23.4453 C   0  0  0  0  0  0  0  0  0  0  0  0
  -10.6802   -0.2155  -22.9430 Cl  0  0  0  0  0  0  0  0  0  0  0  0
   -8.7870   -1.9914  -23.0539 C   0  0  0  0  0  0  0  0  0  0  0  0
   -8.2664   -3.3054  -23.5562 C   0  0  0  0  0  0  0  0  0  0  0  0
   -6.8708   -6.8270  -24.9023 H   0  0  0  0  0  0  0  0  0  0  0  0
   -7.8528   -1.6128  -19.9245 C   0  0  0  0  0  0  0  0  0  0  0  0
   -6.7371   -0.7470  -19.4187 N   0  0  0  0  0  0  0  0  0  0  0  0
   -6.6294   -0.1629  -18.0413 N   0  0  0  0  0  0  0  0  0  0  0  0
   -5.3591    0.6317  -17.9729 C   0  0  0  0  0  0  0  0  0  0  0  0
   -4.6817    0.5387  -19.3079 C   0  0  0  0  0  0  0  0  0  0  0  0
   -3.3992    1.1199  -19.8254 C   0  0  0  0  0  0  0  0  0  0  0  0
   -2.9686    0.8489  -21.2364 N   0  0  0  0  0  0  0  0  0  0  0  0
   -3.8203   -0.0032  -22.1300 C   0  0  0  0  0  0  0  0  0  0  0  0
   -5.1026   -0.5843  -21.6126 C   0  0  0  0  0  0  0  0  0  0  0  0
   -5.5334   -0.3134  -20.2015 C   0  0  0  0  0  0  0  0  0  0  0  0
 19 20  1  0  0  0
 20 21  1  0  0  0
 21 22  2  0  0  0
 22 23  1  0  0  0
 23 24  2  0  0  0
 24 25  1  0  0  0
 25 26  2  0  0  0
 26 27  1  0  0  0
 27  1  1  0  0  0
  1  2  1  0  0  0
  2  3  2  0  0  0
  5  2  1  0  0  0
  5  6  1  0  0  0
  6  7  1  0  0  0
  7  8  1  0  0  0
  8  9  2  0  0  0
  8 10  2  0  0  0
  8 11  1  0  0  0
 11 12  2  0  0  0
 12 13  1  0  0  0
 13 14  2  0  0  0
 14 15  1  0  0  0
 14 16  1  0  0  0
 16 17  2  0  0  0
 27 28  2  0  0  0
 28 20  1  0  0  0
 28 23  1  0  0  0
 17  5  1  0  0  0
 17 11  1  0  0  0
  1  4  1  0  0  0
  7 18  1  0  0  0
M  END
> <minimizedAffinity>
-7.41844

> <CNNscore>
0.2805010676

> <CNNaffinity>
5.5984392166

> <CNN_VS>
1.5703681707

> <CNNaffinity_variance>
0.1108766347

$$$$



 28 31  0  0  0  0  0  0  0  0999 V2000
   -4.6886   -1.1184  -22.9988 N   0  0  0  0  0  0  0  0  0  0  0  0
   -5.9507   -0.8891  -23.7762 C   0  0  0  0  0  0  0  0  0  0  0  0
   -6.8367    0.2743  -23.4418 O   0  0  0  0  0  0  0  0  0  0  0  0
   -4.1071   -1.8820  -23.2182 H   0  0  0  0  0  0  0  0  0  0  0  0
   -6.3270   -1.8231  -24.8880 C   0  0  0  0  0  0  0  0  0  0  0  0
   -5.3575   -2.0947  -25.9998 C   0  0  0  0  0  0  0  0  0  0  0  0
   -5.7337   -3.0288  -27.1116 N   0  0  0  0  0  0  0  0  0  0  0  0
   -7.0795   -3.6912  -27.1115 S   0  0  0  0  0  0  0  0  0  0  0  0
   -8.2270   -4.5518  -27.5505 O   0  0  0  0  0  0  0  0  0  0  0  0
   -6.5085   -4.2617  -28.3758 O   0  0  0  0  0  0  0  0  0  0  0  0
   -8.0491   -3.4196  -25.9996 C   0  0  0  0  0  0  0  0  0  0  0  0
   -9.3949   -4.0820  -25.9995 C   0  0  0  0  0  0  0  0  0  0  0  0
  -10.3644   -3.8104  -24.8877 C   0  0  0  0  0  0  0  0  0  0  0  0
   -9.9881   -2.8764  -23.7759 C   0  0  0  0  0  0  0  0  0  0  0  0
  -10.9577   -2.6048  -22.6640 Cl  0  0  0  0  0  0  0  0  0  0  0  0
   -8.6424   -2.2140  -23.7760 C   0  0  0  0  0  0  0  0  0  0  0  0
   -7.6729   -2.4856  -24.8878 C   0  0  0  0  0  0  0  0  0  0  0  0
   -5.0745   -3.2135  -27.8676 H   0  0  0  0  0  0  0  0  0  0  0  0
   -6.2392   -2.6892  -20.6688 C   0  0  0  0  0  0  0  0  0  0  0  0
   -5.6428   -1.5399  -19.9114 N   0  0  0  0  0  0  0  0  0  0  0  0
   -5.7921   -1.2805  -18.4415 N   0  0  0  0  0  0  0  0  0  0  0  0
   -5.0340   -0.0287  -18.1125 C   0  0  0  0  0  0  0  0  0  0  0  0
   -4.4164    0.4855  -19.3789 C   0  0  0  0  0  0  0  0  0  0  0  0
   -3.5598    1.6837  -19.6635 C   0  0  0  0  0  0  0  0  0  0  0  0
   -3.0796    1.9477  -21.0598 N   0  0  0  0  0  0  0  0  0  0  0  0
   -3.4558    1.0137  -22.1715 C   0  0  0  0  0  0  0  0  0  0  0  0
   -4.3123   -0.1844  -21.8870 C   0  0  0  0  0  0  0  0  0  0  0  0
   -4.7926   -0.4485  -20.4907 C   0  0  0  0  0  0  0  0  0  0  0  0
 19 20  1  0  0  0
 20 21  1  0  0  0
 21 22  2  0  0  0
 22 23  1  0  0  0
 23 24  2  0  0  0
 24 25  1  0  0  0
 25 26  2  0  0  0
 26 27  1  0  0  0
 27  1  1  0  0  0
  1  2  1  0  0  0
  2  3  2  0  0  0
  5  2  1  0  0  0
  5  6  1  0  0  0
  6  7  1  0  0  0
  7  8  1  0  0  0
  8  9  2  0  0  0
  8 10  2  0  0  0
  8 11  1  0  0  0
 11 12  2  0  0  0
 12 13  1  0  0  0
 13 14  2  0  0  0
 14 15  1  0  0  0
 14 16  1  0  0  0
 16 17  2  0  0  0
 27 28  2  0  0  0
 28 20  1  0  0  0
 28 23  1  0  0  0
 17  5  1  0  0  0
 17 11  1  0  0  0
  1  4  1  0  0  0
  7 18  1  0  0  0
M  END
> <minimizedAffinity>
-6.98921

> <CNNscore>
0.2786290646

> <CNNaffinity>
5.3157010078

> <CNN_VS>
1.4811087847

> <CNNaffinity_variance>
0.0285656806

$$$$
