


 22 24  0  0  0  0  0  0  0  0999 V2000
   11.0722    5.4812   22.8349 C   0  0  0  0  0  0  0  0  0  0  0  0
   10.8139    4.0036   22.8305 C   0  0  0  0  0  0  0  0  0  0  0  0
   11.9616    3.0418   22.7422 C   0  0  0  0  0  0  0  0  0  0  0  0
   11.7033    1.5642   22.7378 C   0  0  0  0  0  0  0  0  0  0  0  0
   12.8511    0.6025   22.6495 C   0  0  0  0  0  0  0  0  0  0  0  0
   10.2973    1.0484   22.8217 N   0  0  0  0  0  0  0  0  0  0  0  0
   10.0390   -0.4292   22.8173 C   0  0  0  0  0  0  0  0  0  0  0  0
    8.6330   -0.9450   22.9011 O   0  0  0  0  0  0  0  0  0  0  0  0
    9.1496    2.0101   22.9100 C   0  0  0  0  0  0  0  0  0  0  0  0
    7.7436    1.4943   22.9938 C   0  0  0  0  0  0  0  0  0  0  0  0
    9.4078    3.4877   22.9144 C   0  0  0  0  0  0  0  0  0  0  0  0
   11.1867   -1.3909   22.7290 C   0  0  0  0  0  0  0  0  0  0  0  0
   11.7881   -1.9580   23.9807 C   0  0  0  0  0  0  0  0  0  0  0  0
   13.2683   -1.8717   24.2074 C   0  0  0  0  0  0  0  0  0  0  0  0
   13.8697   -2.4387   25.4592 N   0  0  0  0  0  0  0  0  0  0  0  0
   12.9908   -3.0920   26.4842 C   0  0  0  0  0  0  0  0  0  0  0  0
   11.5105   -3.1783   26.2575 C   0  0  0  0  0  0  0  0  0  0  0  0
   10.6317   -3.8316   27.2826 C   0  0  0  0  0  0  0  0  0  0  0  0
    9.1514   -3.9179   27.0559 C   0  0  0  0  0  0  0  0  0  0  0  0
    8.5501   -3.3509   25.8041 C   0  0  0  0  0  0  0  0  0  0  0  0
    9.4289   -2.6976   24.7791 C   0  0  0  0  0  0  0  0  0  0  0  0
   10.9092   -2.6113   25.0058 C   0  0  0  0  0  0  0  0  0  0  0  0
  2  1  1  0  0  0
  2  3  1  0  0  0
  3  4  1  0  0  0
  4  5  1  0  0  0
  4  6  1  0  0  0
  6  7  1  0  0  0
  7  8  2  0  0  0
  7 12  1  0  0  0
 12 13  1  0  0  0
 13 14  2  0  0  0
 14 15  1  0  0  0
 15 16  2  0  0  0
 16 17  1  0  0  0
 17 18  2  0  0  0
 18 19  1  0  0  0
 19 20  2  0  0  0
 20 21  1  0  0  0
 21 22  2  0  0  0
  6  9  1  0  0  0
  9 10  1  0  0  0
  9 11  1  0  0  0
 11  2  1  0  0  0
 22 13  1  0  0  0
 22 17  1  0  0  0
M  END
> <minimizedAffinity>
-7.43164

> <CNNscore>
0.8002036810

> <CNNaffinity>
5.9868917465

> <CNN_VS>
4.7907328606

> <CNNaffinity_variance>
0.1053866521

$$$$



 22 24  0  0  0  0  0  0  0  0999 V2000
   11.3171    5.7990   22.9300 C   0  0  0  0  0  0  0  0  0  0  0  0
   10.8103    4.3883   22.8751 C   0  0  0  0  0  0  0  0  0  0  0  0
   11.7794    3.2443   22.8318 C   0  0  0  0  0  0  0  0  0  0  0  0
   11.2725    1.8336   22.7768 C   0  0  0  0  0  0  0  0  0  0  0  0
   12.2418    0.6895   22.7336 C   0  0  0  0  0  0  0  0  0  0  0  0
    9.7965    1.5669   22.7651 N   0  0  0  0  0  0  0  0  0  0  0  0
    9.2896    0.1562   22.7101 C   0  0  0  0  0  0  0  0  0  0  0  0
    7.8135   -0.1104   22.6984 O   0  0  0  0  0  0  0  0  0  0  0  0
    8.8273    2.7109   22.8083 C   0  0  0  0  0  0  0  0  0  0  0  0
    7.3513    2.4443   22.7966 C   0  0  0  0  0  0  0  0  0  0  0  0
    9.3342    4.1216   22.8633 C   0  0  0  0  0  0  0  0  0  0  0  0
   10.2588   -0.9878   22.6669 C   0  0  0  0  0  0  0  0  0  0  0  0
   10.1303   -2.1171   23.6458 C   0  0  0  0  0  0  0  0  0  0  0  0
    8.9211   -3.0040   23.6131 C   0  0  0  0  0  0  0  0  0  0  0  0
    8.7926   -4.1333   24.5920 N   0  0  0  0  0  0  0  0  0  0  0  0
    9.8732   -4.3756   25.6036 C   0  0  0  0  0  0  0  0  0  0  0  0
   11.0825   -3.4886   25.6363 C   0  0  0  0  0  0  0  0  0  0  0  0
   12.1632   -3.7309   26.6479 C   0  0  0  0  0  0  0  0  0  0  0  0
   13.3724   -2.8440   26.6805 C   0  0  0  0  0  0  0  0  0  0  0  0
   13.5009   -1.7147   25.7016 C   0  0  0  0  0  0  0  0  0  0  0  0
   12.4203   -1.4724   24.6901 C   0  0  0  0  0  0  0  0  0  0  0  0
   11.2111   -2.3594   24.6574 C   0  0  0  0  0  0  0  0  0  0  0  0
  2  1  1  0  0  0
  2  3  1  0  0  0
  3  4  1  0  0  0
  4  5  1  0  0  0
  4  6  1  0  0  0
  6  7  1  0  0  0
  7  8  2  0  0  0
  7 12  1  0  0  0
 12 13  1  0  0  0
 13 14  2  0  0  0
 14 15  1  0  0  0
 15 16  2  0  0  0
 16 17  1  0  0  0
 17 18  2  0  0  0
 18 19  1  0  0  0
 19 20  2  0  0  0
 20 21  1  0  0  0
 21 22  2  0  0  0
  6  9  1  0  0  0
  9 10  1  0  0  0
  9 11  1  0  0  0
 11  2  1  0  0  0
 22 13  1  0  0  0
 22 17  1  0  0  0
M  END
> <minimizedAffinity>
-7.31603

> <CNNscore>
0.6720346212

> <CNNaffinity>
5.8139104843

> <CNN_VS>
3.9071490765

> <CNNaffinity_variance>
0.0196581222

$$$$



 22 24  0  0  0  0  0  0  0  0999 V2000
    1.8875   -4.4894   26.9394 C   0  0  0  0  0  0  0  0  0  0  0  0
    3.2810   -4.5674   26.3897 C   0  0  0  0  0  0  0  0  0  0  0  0
    4.3582   -3.6858   26.9487 C   0  0  0  0  0  0  0  0  0  0  0  0
    5.7517   -3.7637   26.3991 C   0  0  0  0  0  0  0  0  0  0  0  0
    6.8288   -2.8820   26.9582 C   0  0  0  0  0  0  0  0  0  0  0  0
    6.0680   -4.7233   25.2905 N   0  0  0  0  0  0  0  0  0  0  0  0
    7.4615   -4.8012   24.7408 C   0  0  0  0  0  0  0  0  0  0  0  0
    7.7779   -5.7609   23.6322 O   0  0  0  0  0  0  0  0  0  0  0  0
    4.9909   -5.6049   24.7314 C   0  0  0  0  0  0  0  0  0  0  0  0
    5.3072   -6.5645   23.6228 C   0  0  0  0  0  0  0  0  0  0  0  0
    3.5974   -5.5270   25.2810 C   0  0  0  0  0  0  0  0  0  0  0  0
    8.5387   -3.9196   25.2999 C   0  0  0  0  0  0  0  0  0  0  0  0
    9.3843   -3.0921   24.3779 C   0  0  0  0  0  0  0  0  0  0  0  0
    8.8226   -2.6136   23.0719 C   0  0  0  0  0  0  0  0  0  0  0  0
    9.6682   -1.7861   22.1499 N   0  0  0  0  0  0  0  0  0  0  0  0
   11.0755   -1.4370   22.5338 C   0  0  0  0  0  0  0  0  0  0  0  0
   11.6373   -1.9155   23.8398 C   0  0  0  0  0  0  0  0  0  0  0  0
   13.0447   -1.5664   24.2238 C   0  0  0  0  0  0  0  0  0  0  0  0
   13.6064   -2.0448   25.5297 C   0  0  0  0  0  0  0  0  0  0  0  0
   12.7608   -2.8724   26.4517 C   0  0  0  0  0  0  0  0  0  0  0  0
   11.3534   -3.2215   26.0678 C   0  0  0  0  0  0  0  0  0  0  0  0
   10.7917   -2.7430   24.7618 C   0  0  0  0  0  0  0  0  0  0  0  0
  2  1  1  0  0  0
  2  3  1  0  0  0
  3  4  1  0  0  0
  4  5  1  0  0  0
  4  6  1  0  0  0
  6  7  1  0  0  0
  7  8  2  0  0  0
  7 12  1  0  0  0
 12 13  1  0  0  0
 13 14  2  0  0  0
 14 15  1  0  0  0
 15 16  2  0  0  0
 16 17  1  0  0  0
 17 18  2  0  0  0
 18 19  1  0  0  0
 19 20  2  0  0  0
 20 21  1  0  0  0
 21 22  2  0  0  0
  6  9  1  0  0  0
  9 10  1  0  0  0
  9 11  1  0  0  0
 11  2  1  0  0  0
 22 13  1  0  0  0
 22 17  1  0  0  0
M  END
> <minimizedAffinity>
-6.72606

> <CNNscore>
0.6589728594

> <CNNaffinity>
5.7487096786

> <CNN_VS>
3.7882437706

> <CNNaffinity_variance>
0.0828068331

$$$$



 22 24  0  0  0  0  0  0  0  0999 V2000
    5.5207    1.7653   20.6686 C   0  0  0  0  0  0  0  0  0  0  0  0
    6.8496    1.3450   21.2230 C   0  0  0  0  0  0  0  0  0  0  0  0
    7.2330   -0.1051   21.2338 C   0  0  0  0  0  0  0  0  0  0  0  0
    8.5619   -0.5254   21.7882 C   0  0  0  0  0  0  0  0  0  0  0  0
    8.9453   -1.9756   21.7990 C   0  0  0  0  0  0  0  0  0  0  0  0
    9.5074    0.5044   22.3317 N   0  0  0  0  0  0  0  0  0  0  0  0
   10.8363    0.0841   22.8861 C   0  0  0  0  0  0  0  0  0  0  0  0
   11.7819    1.1140   23.4296 O   0  0  0  0  0  0  0  0  0  0  0  0
    9.1240    1.9546   22.3209 C   0  0  0  0  0  0  0  0  0  0  0  0
   10.0696    2.9844   22.8644 C   0  0  0  0  0  0  0  0  0  0  0  0
    7.7951    2.3749   21.7666 C   0  0  0  0  0  0  0  0  0  0  0  0
   11.2197   -1.3660   22.8969 C   0  0  0  0  0  0  0  0  0  0  0  0
   11.8507   -1.9659   24.1184 C   0  0  0  0  0  0  0  0  0  0  0  0
   13.3412   -1.9366   24.2839 C   0  0  0  0  0  0  0  0  0  0  0  0
   13.9722   -2.5364   25.5054 N   0  0  0  0  0  0  0  0  0  0  0  0
   13.1126   -3.1656   26.5614 C   0  0  0  0  0  0  0  0  0  0  0  0
   11.6220   -3.1950   26.3960 C   0  0  0  0  0  0  0  0  0  0  0  0
   10.7624   -3.8241   27.4520 C   0  0  0  0  0  0  0  0  0  0  0  0
    9.2719   -3.8535   27.2865 C   0  0  0  0  0  0  0  0  0  0  0  0
    8.6409   -3.2536   26.0650 C   0  0  0  0  0  0  0  0  0  0  0  0
    9.5005   -2.6244   25.0090 C   0  0  0  0  0  0  0  0  0  0  0  0
   10.9910   -2.5951   25.1745 C   0  0  0  0  0  0  0  0  0  0  0  0
  2  1  1  0  0  0
  2  3  1  0  0  0
  3  4  1  0  0  0
  4  5  1  0  0  0
  4  6  1  0  0  0
  6  7  1  0  0  0
  7  8  2  0  0  0
  7 12  1  0  0  0
 12 13  1  0  0  0
 13 14  2  0  0  0
 14 15  1  0  0  0
 15 16  2  0  0  0
 16 17  1  0  0  0
 17 18  2  0  0  0
 18 19  1  0  0  0
 19 20  2  0  0  0
 20 21  1  0  0  0
 21 22  2  0  0  0
  6  9  1  0  0  0
  9 10  1  0  0  0
  9 11  1  0  0  0
 11  2  1  0  0  0
 22 13  1  0  0  0
 22 17  1  0  0  0
M  END
> <minimizedAffinity>
-7.29754

> <CNNscore>
0.6299055815

> <CNNaffinity>
5.6756224632

> <CNN_VS>
3.5751063824

> <CNNaffinity_variance>
0.1351896226

$$$$



 22 24  0  0  0  0  0  0  0  0999 V2000
   13.0811   -1.5639   24.8889 C   0  0  0  0  0  0  0  0  0  0  0  0
   11.9200   -0.9772   24.1422 C   0  0  0  0  0  0  0  0  0  0  0  0
   10.7542   -1.8436   23.7675 C   0  0  0  0  0  0  0  0  0  0  0  0
    9.5931   -1.2569   23.0209 C   0  0  0  0  0  0  0  0  0  0  0  0
    8.4273   -2.1234   22.6462 C   0  0  0  0  0  0  0  0  0  0  0  0
    9.5976    0.1962   22.6489 N   0  0  0  0  0  0  0  0  0  0  0  0
    8.4365    0.7829   21.9023 C   0  0  0  0  0  0  0  0  0  0  0  0
    8.4411    2.2361   21.5303 O   0  0  0  0  0  0  0  0  0  0  0  0
   10.7634    1.0627   23.0236 C   0  0  0  0  0  0  0  0  0  0  0  0
   10.7679    2.5158   22.6516 C   0  0  0  0  0  0  0  0  0  0  0  0
   11.9245    0.4760   23.7702 C   0  0  0  0  0  0  0  0  0  0  0  0
    7.2708   -0.0835   21.5276 C   0  0  0  0  0  0  0  0  0  0  0  0
    6.4470    0.2490   20.3190 C   0  0  0  0  0  0  0  0  0  0  0  0
    6.7787   -0.3676   18.9924 C   0  0  0  0  0  0  0  0  0  0  0  0
    5.9550   -0.0351   17.7838 N   0  0  0  0  0  0  0  0  0  0  0  0
    4.7995    0.9141   17.9016 C   0  0  0  0  0  0  0  0  0  0  0  0
    4.4677    1.5307   19.2282 C   0  0  0  0  0  0  0  0  0  0  0  0
    3.3122    2.4799   19.3461 C   0  0  0  0  0  0  0  0  0  0  0  0
    2.9805    3.0965   20.6726 C   0  0  0  0  0  0  0  0  0  0  0  0
    3.8042    2.7639   21.8812 C   0  0  0  0  0  0  0  0  0  0  0  0
    4.9597    1.8148   21.7634 C   0  0  0  0  0  0  0  0  0  0  0  0
    5.2914    1.1982   20.4369 C   0  0  0  0  0  0  0  0  0  0  0  0
  2  1  1  0  0  0
  2  3  1  0  0  0
  3  4  1  0  0  0
  4  5  1  0  0  0
  4  6  1  0  0  0
  6  7  1  0  0  0
  7  8  2  0  0  0
  7 12  1  0  0  0
 12 13  1  0  0  0
 13 14  2  0  0  0
 14 15  1  0  0  0
 15 16  2  0  0  0
 16 17  1  0  0  0
 17 18  2  0  0  0
 18 19  1  0  0  0
 19 20  2  0  0  0
 20 21  1  0  0  0
 21 22  2  0  0  0
  6  9  1  0  0  0
  9 10  1  0  0  0
  9 11  1  0  0  0
 11  2  1  0  0  0
 22 13  1  0  0  0
 22 17  1  0  0  0
M  END
> <minimizedAffinity>
-7.63522

> <CNNscore>
0.6143203378

> <CNNaffinity>
5.6221756935

> <CNN_VS>
3.4538168907

> <CNNaffinity_variance>
0.1408968717

$$$$



 22 24  0  0  0  0  0  0  0  0999 V2000
    2.3192   -6.8350   25.2182 C   0  0  0  0  0  0  0  0  0  0  0  0
    3.5813   -6.0293   25.3078 C   0  0  0  0  0  0  0  0  0  0  0  0
    4.8179   -6.4909   24.5954 C   0  0  0  0  0  0  0  0  0  0  0  0
    6.0800   -5.6853   24.6850 C   0  0  0  0  0  0  0  0  0  0  0  0
    7.3167   -6.1470   23.9725 C   0  0  0  0  0  0  0  0  0  0  0  0
    6.1055   -4.4180   25.4870 N   0  0  0  0  0  0  0  0  0  0  0  0
    7.3676   -3.6123   25.5766 C   0  0  0  0  0  0  0  0  0  0  0  0
    7.3929   -2.3449   26.3786 O   0  0  0  0  0  0  0  0  0  0  0  0
    4.8688   -3.9563   26.1994 C   0  0  0  0  0  0  0  0  0  0  0  0
    4.8942   -2.6890   27.0014 C   0  0  0  0  0  0  0  0  0  0  0  0
    3.6067   -4.7619   26.1098 C   0  0  0  0  0  0  0  0  0  0  0  0
    8.6042   -4.0739   24.8642 C   0  0  0  0  0  0  0  0  0  0  0  0
    9.4454   -3.0893   24.1072 C   0  0  0  0  0  0  0  0  0  0  0  0
    8.9297   -2.4840   22.8353 C   0  0  0  0  0  0  0  0  0  0  0  0
    9.7709   -1.4995   22.0783 N   0  0  0  0  0  0  0  0  0  0  0  0
   11.1277   -1.1202   22.5932 C   0  0  0  0  0  0  0  0  0  0  0  0
   11.6434   -1.7255   23.8651 C   0  0  0  0  0  0  0  0  0  0  0  0
   13.0002   -1.3462   24.3800 C   0  0  0  0  0  0  0  0  0  0  0  0
   13.5159   -1.9514   25.6518 C   0  0  0  0  0  0  0  0  0  0  0  0
   12.6747   -2.9360   26.4088 C   0  0  0  0  0  0  0  0  0  0  0  0
   11.3179   -3.3153   25.8940 C   0  0  0  0  0  0  0  0  0  0  0  0
   10.8023   -2.7100   24.6221 C   0  0  0  0  0  0  0  0  0  0  0  0
  2  1  1  0  0  0
  2  3  1  0  0  0
  3  4  1  0  0  0
  4  5  1  0  0  0
  4  6  1  0  0  0
  6  7  1  0  0  0
  7  8  2  0  0  0
  7 12  1  0  0  0
 12 13  1  0  0  0
 13 14  2  0  0  0
 14 15  1  0  0  0
 15 16  2  0  0  0
 16 17  1  0  0  0
 17 18  2  0  0  0
 18 19  1  0  0  0
 19 20  2  0  0  0
 20 21  1  0  0  0
 21 22  2  0  0  0
  6  9  1  0  0  0
  9 10  1  0  0  0
  9 11  1  0  0  0
 11  2  1  0  0  0
 22 13  1  0  0  0
 22 17  1  0  0  0
M  END
> <minimizedAffinity>
-6.87534

> <CNNscore>
0.5947263837

> <CNNaffinity>
5.7242231369

> <CNN_VS>
3.4043464661

> <CNNaffinity_variance>
0.1213792935

$$$$



 22 24  0  0  0  0  0  0  0  0999 V2000
    7.8967    4.6118   23.1824 C   0  0  0  0  0  0  0  0  0  0  0  0
    8.4465    3.2357   22.9495 C   0  0  0  0  0  0  0  0  0  0  0  0
    9.8865    2.9427   23.2500 C   0  0  0  0  0  0  0  0  0  0  0  0
   10.4363    1.5666   23.0171 C   0  0  0  0  0  0  0  0  0  0  0  0
   11.8764    1.2736   23.3177 C   0  0  0  0  0  0  0  0  0  0  0  0
    9.5461    0.4837   22.4836 N   0  0  0  0  0  0  0  0  0  0  0  0
   10.0959   -0.8924   22.2507 C   0  0  0  0  0  0  0  0  0  0  0  0
    9.2056   -1.9754   21.7172 O   0  0  0  0  0  0  0  0  0  0  0  0
    8.1060    0.7767   22.1830 C   0  0  0  0  0  0  0  0  0  0  0  0
    7.2157   -0.3062   21.6496 C   0  0  0  0  0  0  0  0  0  0  0  0
    7.5562    2.1527   22.4160 C   0  0  0  0  0  0  0  0  0  0  0  0
   11.5359   -1.1854   22.5513 C   0  0  0  0  0  0  0  0  0  0  0  0
   11.9120   -1.8543   23.8401 C   0  0  0  0  0  0  0  0  0  0  0  0
   13.3574   -2.0218   24.2043 C   0  0  0  0  0  0  0  0  0  0  0  0
   13.7335   -2.6907   25.4932 N   0  0  0  0  0  0  0  0  0  0  0  0
   12.6642   -3.1921   26.4178 C   0  0  0  0  0  0  0  0  0  0  0  0
   11.2187   -3.0247   26.0536 C   0  0  0  0  0  0  0  0  0  0  0  0
   10.1494   -3.5262   26.9783 C   0  0  0  0  0  0  0  0  0  0  0  0
    8.7039   -3.3588   26.6141 C   0  0  0  0  0  0  0  0  0  0  0  0
    8.3278   -2.6899   25.3252 C   0  0  0  0  0  0  0  0  0  0  0  0
    9.3972   -2.1884   24.4006 C   0  0  0  0  0  0  0  0  0  0  0  0
   10.8426   -2.3558   24.7648 C   0  0  0  0  0  0  0  0  0  0  0  0
  2  1  1  0  0  0
  2  3  1  0  0  0
  3  4  1  0  0  0
  4  5  1  0  0  0
  4  6  1  0  0  0
  6  7  1  0  0  0
  7  8  2  0  0  0
  7 12  1  0  0  0
 12 13  1  0  0  0
 13 14  2  0  0  0
 14 15  1  0  0  0
 15 16  2  0  0  0
 16 17  1  0  0  0
 17 18  2  0  0  0
 18 19  1  0  0  0
 19 20  2  0  0  0
 20 21  1  0  0  0
 21 22  2  0  0  0
  6  9  1  0  0  0
  9 10  1  0  0  0
  9 11  1  0  0  0
 11  2  1  0  0  0
 22 13  1  0  0  0
 22 17  1  0  0  0
M  END
> <minimizedAffinity>
-7.27002

> <CNNscore>
0.5915604234

> <CNNaffinity>
5.5945062637

> <CNN_VS>
3.3094885349

> <CNNaffinity_variance>
0.2808070779

$$$$



 22 24  0  0  0  0  0  0  0  0999 V2000
    3.0713   -5.2906   26.8181 C   0  0  0  0  0  0  0  0  0  0  0  0
    4.2057   -4.5325   26.1950 C   0  0  0  0  0  0  0  0  0  0  0  0
    5.2957   -5.2706   25.4759 C   0  0  0  0  0  0  0  0  0  0  0  0
    6.4301   -4.5124   24.8528 C   0  0  0  0  0  0  0  0  0  0  0  0
    7.5201   -5.2506   24.1336 C   0  0  0  0  0  0  0  0  0  0  0  0
    6.4746   -3.0162   24.9489 N   0  0  0  0  0  0  0  0  0  0  0  0
    7.6091   -2.2580   24.3258 C   0  0  0  0  0  0  0  0  0  0  0  0
    7.6535   -0.7617   24.4219 O   0  0  0  0  0  0  0  0  0  0  0  0
    5.3847   -2.2780   25.6681 C   0  0  0  0  0  0  0  0  0  0  0  0
    5.4292   -0.7818   25.7641 C   0  0  0  0  0  0  0  0  0  0  0  0
    4.2502   -3.0362   26.2911 C   0  0  0  0  0  0  0  0  0  0  0  0
    8.6990   -2.9961   23.6066 C   0  0  0  0  0  0  0  0  0  0  0  0
   10.0463   -2.3604   23.4318 C   0  0  0  0  0  0  0  0  0  0  0  0
   10.3300   -1.5256   22.2184 C   0  0  0  0  0  0  0  0  0  0  0  0
   11.6774   -0.8899   22.0436 N   0  0  0  0  0  0  0  0  0  0  0  0
   12.7410   -1.0890   23.0823 C   0  0  0  0  0  0  0  0  0  0  0  0
   12.4574   -1.9238   24.2959 C   0  0  0  0  0  0  0  0  0  0  0  0
   13.5210   -2.1229   25.3346 C   0  0  0  0  0  0  0  0  0  0  0  0
   13.2373   -2.9577   26.5480 C   0  0  0  0  0  0  0  0  0  0  0  0
   11.8900   -3.5934   26.7228 C   0  0  0  0  0  0  0  0  0  0  0  0
   10.8263   -3.3943   25.6841 C   0  0  0  0  0  0  0  0  0  0  0  0
   11.1100   -2.5595   24.4706 C   0  0  0  0  0  0  0  0  0  0  0  0
  2  1  1  0  0  0
  2  3  1  0  0  0
  3  4  1  0  0  0
  4  5  1  0  0  0
  4  6  1  0  0  0
  6  7  1  0  0  0
  7  8  2  0  0  0
  7 12  1  0  0  0
 12 13  1  0  0  0
 13 14  2  0  0  0
 14 15  1  0  0  0
 15 16  2  0  0  0
 16 17  1  0  0  0
 17 18  2  0  0  0
 18 19  1  0  0  0
 19 20  2  0  0  0
 20 21  1  0  0  0
 21 22  2  0  0  0
  6  9  1  0  0  0
  9 10  1  0  0  0
  9 11  1  0  0  0
 11  2  1  0  0  0
 22 13  1  0  0  0
 22 17  1  0  0  0
M  END
> <minimizedAffinity>
-6.53583

> <CNNscore>
0.5852636099

> <CNNaffinity>
5.7113566399

> <CNN_VS>
3.3426492214

> <CNNaffinity_variance>
0.1118328124

$$$$



 22 24  0  0  0  0  0  0  0  0999 V2000
    6.9297    4.6812   22.9675 C   0  0  0  0  0  0  0  0  0  0  0  0
    7.8871    3.5290   22.8911 C   0  0  0  0  0  0  0  0  0  0  0  0
    7.3765    2.1471   22.6093 C   0  0  0  0  0  0  0  0  0  0  0  0
    8.3339    0.9949   22.5329 C   0  0  0  0  0  0  0  0  0  0  0  0
    7.8233   -0.3872   22.2510 C   0  0  0  0  0  0  0  0  0  0  0  0
    9.8019    1.2246   22.7384 N   0  0  0  0  0  0  0  0  0  0  0  0
   10.7593    0.0724   22.6620 C   0  0  0  0  0  0  0  0  0  0  0  0
   12.2273    0.3023   22.8675 O   0  0  0  0  0  0  0  0  0  0  0  0
   10.3125    2.6066   23.0202 C   0  0  0  0  0  0  0  0  0  0  0  0
   11.7805    2.8364   23.2257 C   0  0  0  0  0  0  0  0  0  0  0  0
    9.3551    3.7588   23.0966 C   0  0  0  0  0  0  0  0  0  0  0  0
   10.2487   -1.3095   22.3801 C   0  0  0  0  0  0  0  0  0  0  0  0
   10.0741   -2.2882   23.5034 C   0  0  0  0  0  0  0  0  0  0  0  0
    8.7935   -3.0580   23.6352 C   0  0  0  0  0  0  0  0  0  0  0  0
    8.6189   -4.0366   24.7585 N   0  0  0  0  0  0  0  0  0  0  0  0
    9.7249   -4.2455   25.7500 C   0  0  0  0  0  0  0  0  0  0  0  0
   11.0056   -3.4757   25.6182 C   0  0  0  0  0  0  0  0  0  0  0  0
   12.1116   -3.6845   26.6097 C   0  0  0  0  0  0  0  0  0  0  0  0
   13.3922   -2.9147   26.4779 C   0  0  0  0  0  0  0  0  0  0  0  0
   13.5668   -1.9361   25.3546 C   0  0  0  0  0  0  0  0  0  0  0  0
   12.4608   -1.7272   24.3631 C   0  0  0  0  0  0  0  0  0  0  0  0
   11.1802   -2.4970   24.4949 C   0  0  0  0  0  0  0  0  0  0  0  0
  2  1  1  0  0  0
  2  3  1  0  0  0
  3  4  1  0  0  0
  4  5  1  0  0  0
  4  6  1  0  0  0
  6  7  1  0  0  0
  7  8  2  0  0  0
  7 12  1  0  0  0
 12 13  1  0  0  0
 13 14  2  0  0  0
 14 15  1  0  0  0
 15 16  2  0  0  0
 16 17  1  0  0  0
 17 18  2  0  0  0
 18 19  1  0  0  0
 19 20  2  0  0  0
 20 21  1  0  0  0
 21 22  2  0  0  0
  6  9  1  0  0  0
  9 10  1  0  0  0
  9 11  1  0  0  0
 11  2  1  0  0  0
 22 13  1  0  0  0
 22 17  1  0  0  0
M  END
> <minimizedAffinity>
-7.33830

> <CNNscore>
0.5628530979

> <CNNaffinity>
5.6805720329

> <CNN_VS>
3.1973276138

> <CNNaffinity_variance>
0.0774323121

$$$$
