


 22 24  0  0  0  0  0  0  0  0999 V2000
   -9.0961   -7.0144  -25.8064 C   0  0  0  0  0  0  0  0  0  0  0  0
   -8.3871   -6.1633  -24.7951 C   0  0  0  0  0  0  0  0  0  0  0  0
   -8.5893   -4.6770  -24.7918 C   0  0  0  0  0  0  0  0  0  0  0  0
   -7.8802   -3.8258  -23.7805 C   0  0  0  0  0  0  0  0  0  0  0  0
   -8.0824   -2.3395  -23.7773 C   0  0  0  0  0  0  0  0  0  0  0  0
   -6.9691   -4.4609  -22.7724 N   0  0  0  0  0  0  0  0  0  0  0  0
   -6.2600   -3.6098  -21.7610 C   0  0  0  0  0  0  0  0  0  0  0  0
   -5.3488   -4.2450  -20.7529 O   0  0  0  0  0  0  0  0  0  0  0  0
   -6.7669   -5.9473  -22.7756 C   0  0  0  0  0  0  0  0  0  0  0  0
   -5.8557   -6.5824  -21.7675 C   0  0  0  0  0  0  0  0  0  0  0  0
   -7.4759   -6.7985  -23.7869 C   0  0  0  0  0  0  0  0  0  0  0  0
   -6.4622   -2.1235  -21.7578 C   0  0  0  0  0  0  0  0  0  0  0  0
   -5.9587   -1.3006  -20.6092 C   0  0  0  0  0  0  0  0  0  0  0  0
   -6.5784   -1.4495  -19.2514 C   0  0  0  0  0  0  0  0  0  0  0  0
   -6.0749   -0.6266  -18.1028 N   0  0  0  0  0  0  0  0  0  0  0  0
   -4.9516    0.3452  -18.3120 C   0  0  0  0  0  0  0  0  0  0  0  0
   -4.3318    0.4941  -19.6698 C   0  0  0  0  0  0  0  0  0  0  0  0
   -3.2085    1.4659  -19.8790 C   0  0  0  0  0  0  0  0  0  0  0  0
   -2.5888    1.6148  -21.2368 C   0  0  0  0  0  0  0  0  0  0  0  0
   -3.0923    0.7919  -22.3854 C   0  0  0  0  0  0  0  0  0  0  0  0
   -4.2156   -0.1799  -22.1762 C   0  0  0  0  0  0  0  0  0  0  0  0
   -4.8353   -0.3288  -20.8184 C   0  0  0  0  0  0  0  0  0  0  0  0
  2  1  1  0  0  0
  2  3  1  0  0  0
  3  4  1  0  0  0
  4  5  1  0  0  0
  4  6  1  0  0  0
  6  7  1  0  0  0
  7  8  2  0  0  0
  7 12  1  0  0  0
 12 13  1  0  0  0
 13 14  2  0  0  0
 14 15  1  0  0  0
 15 16  2  0  0  0
 16 17  1  0  0  0
 17 18  2  0  0  0
 18 19  1  0  0  0
 19 20  2  0  0  0
 20 21  1  0  0  0
 21 22  2  0  0  0
  6  9  1  0  0  0
  9 10  1  0  0  0
  9 11  1  0  0  0
 11  2  1  0  0  0
 22 13  1  0  0  0
 22 17  1  0  0  0
M  END
> <minimizedAffinity>
-7.67323

> <CNNscore>
0.7895121574

> <CNNaffinity>
5.3954572678

> <CNN_VS>
4.2597789764

> <CNNaffinity_variance>
0.5548198819

$$$$



 22 24  0  0  0  0  0  0  0  0999 V2000
  -10.2837   -5.7249  -26.2363 C   0  0  0  0  0  0  0  0  0  0  0  0
   -9.7068   -4.7943  -25.2110 C   0  0  0  0  0  0  0  0  0  0  0  0
   -8.3545   -5.0706  -24.6239 C   0  0  0  0  0  0  0  0  0  0  0  0
   -7.7775   -4.1401  -23.5987 C   0  0  0  0  0  0  0  0  0  0  0  0
   -6.4251   -4.4164  -23.0116 C   0  0  0  0  0  0  0  0  0  0  0  0
   -8.5529   -2.9331  -23.1605 N   0  0  0  0  0  0  0  0  0  0  0  0
   -7.9760   -2.0026  -22.1353 C   0  0  0  0  0  0  0  0  0  0  0  0
   -8.7515   -0.7956  -21.6971 O   0  0  0  0  0  0  0  0  0  0  0  0
   -9.9054   -2.6567  -23.7476 C   0  0  0  0  0  0  0  0  0  0  0  0
  -10.6808   -1.4498  -23.3095 C   0  0  0  0  0  0  0  0  0  0  0  0
  -10.4823   -3.5873  -24.7729 C   0  0  0  0  0  0  0  0  0  0  0  0
   -6.6236   -2.2789  -21.5482 C   0  0  0  0  0  0  0  0  0  0  0  0
   -6.0833   -1.3972  -20.4615 C   0  0  0  0  0  0  0  0  0  0  0  0
   -6.6513   -1.4811  -19.0758 C   0  0  0  0  0  0  0  0  0  0  0  0
   -6.1109   -0.5994  -17.9892 N   0  0  0  0  0  0  0  0  0  0  0  0
   -5.0027    0.3661  -18.2883 C   0  0  0  0  0  0  0  0  0  0  0  0
   -4.4347    0.4500  -19.6741 C   0  0  0  0  0  0  0  0  0  0  0  0
   -3.3265    1.4155  -19.9733 C   0  0  0  0  0  0  0  0  0  0  0  0
   -2.7586    1.4994  -21.3591 C   0  0  0  0  0  0  0  0  0  0  0  0
   -3.2989    0.6177  -22.4457 C   0  0  0  0  0  0  0  0  0  0  0  0
   -4.4071   -0.3478  -22.1465 C   0  0  0  0  0  0  0  0  0  0  0  0
   -4.9750   -0.4317  -20.7608 C   0  0  0  0  0  0  0  0  0  0  0  0
  2  1  1  0  0  0
  2  3  1  0  0  0
  3  4  1  0  0  0
  4  5  1  0  0  0
  4  6  1  0  0  0
  6  7  1  0  0  0
  7  8  2  0  0  0
  7 12  1  0  0  0
 12 13  1  0  0  0
 13 14  2  0  0  0
 14 15  1  0  0  0
 15 16  2  0  0  0
 16 17  1  0  0  0
 17 18  2  0  0  0
 18 19  1  0  0  0
 19 20  2  0  0  0
 20 21  1  0  0  0
 21 22  2  0  0  0
  6  9  1  0  0  0
  9 10  1  0  0  0
  9 11  1  0  0  0
 11  2  1  0  0  0
 22 13  1  0  0  0
 22 17  1  0  0  0
M  END
> <minimizedAffinity>
-7.24579

> <CNNscore>
0.6602143645

> <CNNaffinity>
5.3124485016

> <CNN_VS>
3.5073547363

> <CNNaffinity_variance>
0.2988758385

$$$$



 22 24  0  0  0  0  0  0  0  0999 V2000
  -13.0186    3.4822  -23.6062 C   0  0  0  0  0  0  0  0  0  0  0  0
  -12.4378    2.0992  -23.6160 C   0  0  0  0  0  0  0  0  0  0  0  0
  -11.0017    1.8915  -23.9958 C   0  0  0  0  0  0  0  0  0  0  0  0
  -10.4209    0.5086  -24.0056 C   0  0  0  0  0  0  0  0  0  0  0  0
   -8.9847    0.3009  -24.3855 C   0  0  0  0  0  0  0  0  0  0  0  0
  -11.2763   -0.6667  -23.6356 N   0  0  0  0  0  0  0  0  0  0  0  0
  -10.6955   -2.0497  -23.6454 C   0  0  0  0  0  0  0  0  0  0  0  0
  -11.5509   -3.2250  -23.2753 O   0  0  0  0  0  0  0  0  0  0  0  0
  -12.7125   -0.4591  -23.2557 C   0  0  0  0  0  0  0  0  0  0  0  0
  -13.5678   -1.6344  -22.8857 C   0  0  0  0  0  0  0  0  0  0  0  0
  -13.2933    0.9239  -23.2459 C   0  0  0  0  0  0  0  0  0  0  0  0
   -9.2593   -2.2574  -24.0252 C   0  0  0  0  0  0  0  0  0  0  0  0
   -8.6771   -3.6397  -24.0298 C   0  0  0  0  0  0  0  0  0  0  0  0
   -7.9563   -4.1540  -22.8190 C   0  0  0  0  0  0  0  0  0  0  0  0
   -7.3741   -5.5364  -22.8236 N   0  0  0  0  0  0  0  0  0  0  0  0
   -7.5126   -6.4045  -24.0390 C   0  0  0  0  0  0  0  0  0  0  0  0
   -8.2334   -5.8903  -25.2498 C   0  0  0  0  0  0  0  0  0  0  0  0
   -8.3719   -6.7584  -26.4652 C   0  0  0  0  0  0  0  0  0  0  0  0
   -9.0927   -6.2441  -27.6760 C   0  0  0  0  0  0  0  0  0  0  0  0
   -9.6749   -4.8617  -27.6714 C   0  0  0  0  0  0  0  0  0  0  0  0
   -9.5364   -3.9936  -26.4560 C   0  0  0  0  0  0  0  0  0  0  0  0
   -8.8156   -4.5079  -25.2452 C   0  0  0  0  0  0  0  0  0  0  0  0
  2  1  1  0  0  0
  2  3  1  0  0  0
  3  4  1  0  0  0
  4  5  1  0  0  0
  4  6  1  0  0  0
  6  7  1  0  0  0
  7  8  2  0  0  0
  7 12  1  0  0  0
 12 13  1  0  0  0
 13 14  2  0  0  0
 14 15  1  0  0  0
 15 16  2  0  0  0
 16 17  1  0  0  0
 17 18  2  0  0  0
 18 19  1  0  0  0
 19 20  2  0  0  0
 20 21  1  0  0  0
 21 22  2  0  0  0
  6  9  1  0  0  0
  9 10  1  0  0  0
  9 11  1  0  0  0
 11  2  1  0  0  0
 22 13  1  0  0  0
 22 17  1  0  0  0
M  END
> <minimizedAffinity>
-6.47461

> <CNNscore>
0.4826370478

> <CNNaffinity>
5.1571431160

> <CNN_VS>
2.4890282154

> <CNNaffinity_variance>
0.1973457336

$$$$



 22 24  0  0  0  0  0  0  0  0999 V2000
  -10.2625   -5.0259  -25.8403 C   0  0  0  0  0  0  0  0  0  0  0  0
   -9.6590   -4.1427  -24.7888 C   0  0  0  0  0  0  0  0  0  0  0  0
   -8.3884   -4.5519  -24.1045 C   0  0  0  0  0  0  0  0  0  0  0  0
   -7.7849   -3.6687  -23.0530 C   0  0  0  0  0  0  0  0  0  0  0  0
   -6.5143   -4.0779  -22.3687 C   0  0  0  0  0  0  0  0  0  0  0  0
   -8.4518   -2.3763  -22.6858 N   0  0  0  0  0  0  0  0  0  0  0  0
   -7.8482   -1.4931  -21.6343 C   0  0  0  0  0  0  0  0  0  0  0  0
   -8.5152   -0.2007  -21.2671 O   0  0  0  0  0  0  0  0  0  0  0  0
   -9.7224   -1.9671  -23.3701 C   0  0  0  0  0  0  0  0  0  0  0  0
  -10.3893   -0.6747  -23.0029 C   0  0  0  0  0  0  0  0  0  0  0  0
  -10.3260   -2.8503  -24.4216 C   0  0  0  0  0  0  0  0  0  0  0  0
   -6.5777   -1.9023  -20.9500 C   0  0  0  0  0  0  0  0  0  0  0  0
   -5.6161   -0.8575  -20.4665 C   0  0  0  0  0  0  0  0  0  0  0  0
   -5.6198   -0.4447  -19.0245 C   0  0  0  0  0  0  0  0  0  0  0  0
   -4.6583    0.6002  -18.5410 N   0  0  0  0  0  0  0  0  0  0  0  0
   -3.6930    1.2321  -19.4995 C   0  0  0  0  0  0  0  0  0  0  0  0
   -3.6893    0.8193  -20.9416 C   0  0  0  0  0  0  0  0  0  0  0  0
   -2.7240    1.4513  -21.9002 C   0  0  0  0  0  0  0  0  0  0  0  0
   -2.7203    1.0385  -23.3422 C   0  0  0  0  0  0  0  0  0  0  0  0
   -3.6819   -0.0064  -23.8257 C   0  0  0  0  0  0  0  0  0  0  0  0
   -4.6472   -0.6383  -22.8672 C   0  0  0  0  0  0  0  0  0  0  0  0
   -4.6508   -0.2255  -21.4251 C   0  0  0  0  0  0  0  0  0  0  0  0
  2  1  1  0  0  0
  2  3  1  0  0  0
  3  4  1  0  0  0
  4  5  1  0  0  0
  4  6  1  0  0  0
  6  7  1  0  0  0
  7  8  2  0  0  0
  7 12  1  0  0  0
 12 13  1  0  0  0
 13 14  2  0  0  0
 14 15  1  0  0  0
 15 16  2  0  0  0
 16 17  1  0  0  0
 17 18  2  0  0  0
 18 19  1  0  0  0
 19 20  2  0  0  0
 20 21  1  0  0  0
 21 22  2  0  0  0
  6  9  1  0  0  0
  9 10  1  0  0  0
  9 11  1  0  0  0
 11  2  1  0  0  0
 22 13  1  0  0  0
 22 17  1  0  0  0
M  END
> <minimizedAffinity>
-6.53214

> <CNNscore>
0.4206978083

> <CNNaffinity>
4.8897800446

> <CNN_VS>
2.0571198463

> <CNNaffinity_variance>
0.3923619688

$$$$



 22 24  0  0  0  0  0  0  0  0999 V2000
   -2.0231    2.9343  -20.3053 C   0  0  0  0  0  0  0  0  0  0  0  0
   -3.3173    2.1933  -20.4674 C   0  0  0  0  0  0  0  0  0  0  0  0
   -4.2021    2.4778  -21.6447 C   0  0  0  0  0  0  0  0  0  0  0  0
   -5.4962    1.7369  -21.8067 C   0  0  0  0  0  0  0  0  0  0  0  0
   -6.3810    2.0214  -22.9841 C   0  0  0  0  0  0  0  0  0  0  0  0
   -5.9055    0.7114  -20.7914 N   0  0  0  0  0  0  0  0  0  0  0  0
   -7.1996   -0.0296  -20.9534 C   0  0  0  0  0  0  0  0  0  0  0  0
   -7.6089   -1.0551  -19.9380 O   0  0  0  0  0  0  0  0  0  0  0  0
   -5.0206    0.4269  -19.6140 C   0  0  0  0  0  0  0  0  0  0  0  0
   -5.4299   -0.5986  -18.5987 C   0  0  0  0  0  0  0  0  0  0  0  0
   -3.7265    1.1678  -19.4520 C   0  0  0  0  0  0  0  0  0  0  0  0
   -8.0844    0.2549  -22.1307 C   0  0  0  0  0  0  0  0  0  0  0  0
   -9.1781   -0.7044  -22.4961 C   0  0  0  0  0  0  0  0  0  0  0  0
   -8.9195   -2.1817  -22.4705 C   0  0  0  0  0  0  0  0  0  0  0  0
  -10.0133   -3.1410  -22.8359 N   0  0  0  0  0  0  0  0  0  0  0  0
  -11.3656   -2.6230  -23.2269 C   0  0  0  0  0  0  0  0  0  0  0  0
  -11.6242   -1.1456  -23.2525 C   0  0  0  0  0  0  0  0  0  0  0  0
  -12.9765   -0.6277  -23.6435 C   0  0  0  0  0  0  0  0  0  0  0  0
  -13.2351    0.8496  -23.6691 C   0  0  0  0  0  0  0  0  0  0  0  0
  -12.1414    1.8089  -23.3037 C   0  0  0  0  0  0  0  0  0  0  0  0
  -10.7891    1.2910  -22.9127 C   0  0  0  0  0  0  0  0  0  0  0  0
  -10.5305   -0.1863  -22.8871 C   0  0  0  0  0  0  0  0  0  0  0  0
  2  1  1  0  0  0
  2  3  1  0  0  0
  3  4  1  0  0  0
  4  5  1  0  0  0
  4  6  1  0  0  0
  6  7  1  0  0  0
  7  8  2  0  0  0
  7 12  1  0  0  0
 12 13  1  0  0  0
 13 14  2  0  0  0
 14 15  1  0  0  0
 15 16  2  0  0  0
 16 17  1  0  0  0
 17 18  2  0  0  0
 18 19  1  0  0  0
 19 20  2  0  0  0
 20 21  1  0  0  0
 21 22  2  0  0  0
  6  9  1  0  0  0
  9 10  1  0  0  0
  9 11  1  0  0  0
 11  2  1  0  0  0
 22 13  1  0  0  0
 22 17  1  0  0  0
M  END
> <minimizedAffinity>
-7.26900

> <CNNscore>
0.4154710472

> <CNNaffinity>
4.9138627052

> <CNN_VS>
2.0415678024

> <CNNaffinity_variance>
0.2751928568

$$$$



 22 24  0  0  0  0  0  0  0  0999 V2000
  -13.3239    1.8553  -23.6004 C   0  0  0  0  0  0  0  0  0  0  0  0
  -12.1177    0.9967  -23.3602 C   0  0  0  0  0  0  0  0  0  0  0  0
  -10.7690    1.6298  -23.1863 C   0  0  0  0  0  0  0  0  0  0  0  0
   -9.5628    0.7712  -22.9461 C   0  0  0  0  0  0  0  0  0  0  0  0
   -8.2141    1.4044  -22.7721 C   0  0  0  0  0  0  0  0  0  0  0  0
   -9.7051   -0.7205  -22.8798 N   0  0  0  0  0  0  0  0  0  0  0  0
   -8.4988   -1.5791  -22.6396 C   0  0  0  0  0  0  0  0  0  0  0  0
   -8.6412   -3.0710  -22.5734 O   0  0  0  0  0  0  0  0  0  0  0  0
  -11.0538   -1.3537  -23.0538 C   0  0  0  0  0  0  0  0  0  0  0  0
  -11.1961   -2.8455  -22.9875 C   0  0  0  0  0  0  0  0  0  0  0  0
  -12.2601   -0.4951  -23.2940 C   0  0  0  0  0  0  0  0  0  0  0  0
   -7.1502   -0.9460  -22.4657 C   0  0  0  0  0  0  0  0  0  0  0  0
   -6.6354   -0.6437  -21.0896 C   0  0  0  0  0  0  0  0  0  0  0  0
   -7.4066   -1.0944  -19.8846 C   0  0  0  0  0  0  0  0  0  0  0  0
   -6.8918   -0.7921  -18.5085 N   0  0  0  0  0  0  0  0  0  0  0  0
   -5.6059   -0.0391  -18.3374 C   0  0  0  0  0  0  0  0  0  0  0  0
   -4.8347    0.4117  -19.5425 C   0  0  0  0  0  0  0  0  0  0  0  0
   -3.5488    1.1647  -19.3714 C   0  0  0  0  0  0  0  0  0  0  0  0
   -2.7776    1.6155  -20.5765 C   0  0  0  0  0  0  0  0  0  0  0  0
   -3.2924    1.3131  -21.9525 C   0  0  0  0  0  0  0  0  0  0  0  0
   -4.5783    0.5601  -22.1236 C   0  0  0  0  0  0  0  0  0  0  0  0
   -5.3494    0.1094  -20.9186 C   0  0  0  0  0  0  0  0  0  0  0  0
  2  1  1  0  0  0
  2  3  1  0  0  0
  3  4  1  0  0  0
  4  5  1  0  0  0
  4  6  1  0  0  0
  6  7  1  0  0  0
  7  8  2  0  0  0
  7 12  1  0  0  0
 12 13  1  0  0  0
 13 14  2  0  0  0
 14 15  1  0  0  0
 15 16  2  0  0  0
 16 17  1  0  0  0
 17 18  2  0  0  0
 18 19  1  0  0  0
 19 20  2  0  0  0
 20 21  1  0  0  0
 21 22  2  0  0  0
  6  9  1  0  0  0
  9 10  1  0  0  0
  9 11  1  0  0  0
 11  2  1  0  0  0
 22 13  1  0  0  0
 22 17  1  0  0  0
M  END
> <minimizedAffinity>
-7.41133

> <CNNscore>
0.4150595963

> <CNNaffinity>
5.0788774490

> <CNN_VS>
2.1080367565

> <CNNaffinity_variance>
0.4971818030

$$$$



 22 24  0  0  0  0  0  0  0  0999 V2000
  -13.8136   -0.8091  -23.5083 C   0  0  0  0  0  0  0  0  0  0  0  0
  -12.3705   -0.4562  -23.3011 C   0  0  0  0  0  0  0  0  0  0  0  0
  -11.4153   -1.4848  -22.7725 C   0  0  0  0  0  0  0  0  0  0  0  0
   -9.9722   -1.1319  -22.5653 C   0  0  0  0  0  0  0  0  0  0  0  0
   -9.0170   -2.1606  -22.0367 C   0  0  0  0  0  0  0  0  0  0  0  0
   -9.4843    0.2496  -22.8867 N   0  0  0  0  0  0  0  0  0  0  0  0
   -8.0413    0.6025  -22.6796 C   0  0  0  0  0  0  0  0  0  0  0  0
   -7.5534    1.9841  -23.0010 O   0  0  0  0  0  0  0  0  0  0  0  0
  -10.4396    1.2783  -23.4154 C   0  0  0  0  0  0  0  0  0  0  0  0
   -9.9517    2.6598  -23.7368 C   0  0  0  0  0  0  0  0  0  0  0  0
  -11.8827    0.9254  -23.6226 C   0  0  0  0  0  0  0  0  0  0  0  0
   -7.0860   -0.4261  -22.1509 C   0  0  0  0  0  0  0  0  0  0  0  0
   -6.3672   -0.1869  -20.8563 C   0  0  0  0  0  0  0  0  0  0  0  0
   -6.9558   -0.6832  -19.5689 C   0  0  0  0  0  0  0  0  0  0  0  0
   -6.2370   -0.4441  -18.2742 N   0  0  0  0  0  0  0  0  0  0  0  0
   -4.9297    0.2914  -18.2669 C   0  0  0  0  0  0  0  0  0  0  0  0
   -4.3411    0.7877  -19.5543 C   0  0  0  0  0  0  0  0  0  0  0  0
   -3.0338    1.5231  -19.5470 C   0  0  0  0  0  0  0  0  0  0  0  0
   -2.4453    2.0194  -20.8344 C   0  0  0  0  0  0  0  0  0  0  0  0
   -3.1641    1.7803  -22.1290 C   0  0  0  0  0  0  0  0  0  0  0  0
   -4.4714    1.0448  -22.1363 C   0  0  0  0  0  0  0  0  0  0  0  0
   -5.0599    0.5486  -20.8490 C   0  0  0  0  0  0  0  0  0  0  0  0
  2  1  1  0  0  0
  2  3  1  0  0  0
  3  4  1  0  0  0
  4  5  1  0  0  0
  4  6  1  0  0  0
  6  7  1  0  0  0
  7  8  2  0  0  0
  7 12  1  0  0  0
 12 13  1  0  0  0
 13 14  2  0  0  0
 14 15  1  0  0  0
 15 16  2  0  0  0
 16 17  1  0  0  0
 17 18  2  0  0  0
 18 19  1  0  0  0
 19 20  2  0  0  0
 20 21  1  0  0  0
 21 22  2  0  0  0
  6  9  1  0  0  0
  9 10  1  0  0  0
  9 11  1  0  0  0
 11  2  1  0  0  0
 22 13  1  0  0  0
 22 17  1  0  0  0
M  END
> <minimizedAffinity>
-6.72916

> <CNNscore>
0.3693782985

> <CNNaffinity>
5.0239114761

> <CNN_VS>
1.8557238579

> <CNNaffinity_variance>
0.1651927531

$$$$



 22 24  0  0  0  0  0  0  0  0999 V2000
   -5.3569   -2.4630  -19.5199 C   0  0  0  0  0  0  0  0  0  0  0  0
   -6.1224   -1.9895  -20.7198 C   0  0  0  0  0  0  0  0  0  0  0  0
   -6.6310   -0.5796  -20.7765 C   0  0  0  0  0  0  0  0  0  0  0  0
   -7.3965   -0.1061  -21.9764 C   0  0  0  0  0  0  0  0  0  0  0  0
   -7.9051    1.3040  -22.0331 C   0  0  0  0  0  0  0  0  0  0  0  0
   -7.6533   -1.0425  -23.1197 N   0  0  0  0  0  0  0  0  0  0  0  0
   -8.4188   -0.5690  -24.3196 C   0  0  0  0  0  0  0  0  0  0  0  0
   -8.6757   -1.5055  -25.4629 O   0  0  0  0  0  0  0  0  0  0  0  0
   -7.1447   -2.4526  -23.0630 C   0  0  0  0  0  0  0  0  0  0  0  0
   -7.4015   -3.3890  -24.2063 C   0  0  0  0  0  0  0  0  0  0  0  0
   -6.3792   -2.9261  -21.8631 C   0  0  0  0  0  0  0  0  0  0  0  0
   -8.9275    0.8410  -24.3763 C   0  0  0  0  0  0  0  0  0  0  0  0
  -10.3761    1.1269  -24.1121 C   0  0  0  0  0  0  0  0  0  0  0  0
  -10.9241    2.5031  -24.3481 C   0  0  0  0  0  0  0  0  0  0  0  0
  -12.3727    2.7890  -24.0840 N   0  0  0  0  0  0  0  0  0  0  0  0
  -13.2733    1.6987  -23.5839 C   0  0  0  0  0  0  0  0  0  0  0  0
  -12.7253    0.3225  -23.3479 C   0  0  0  0  0  0  0  0  0  0  0  0
  -13.6259   -0.7678  -22.8478 C   0  0  0  0  0  0  0  0  0  0  0  0
  -13.0779   -2.1440  -22.6118 C   0  0  0  0  0  0  0  0  0  0  0  0
  -11.6293   -2.4299  -22.8759 C   0  0  0  0  0  0  0  0  0  0  0  0
  -10.7287   -1.3397  -23.3760 C   0  0  0  0  0  0  0  0  0  0  0  0
  -11.2767    0.0365  -23.6120 C   0  0  0  0  0  0  0  0  0  0  0  0
  2  1  1  0  0  0
  2  3  1  0  0  0
  3  4  1  0  0  0
  4  5  1  0  0  0
  4  6  1  0  0  0
  6  7  1  0  0  0
  7  8  2  0  0  0
  7 12  1  0  0  0
 12 13  1  0  0  0
 13 14  2  0  0  0
 14 15  1  0  0  0
 15 16  2  0  0  0
 16 17  1  0  0  0
 17 18  2  0  0  0
 18 19  1  0  0  0
 19 20  2  0  0  0
 20 21  1  0  0  0
 21 22  2  0  0  0
  6  9  1  0  0  0
  9 10  1  0  0  0
  9 11  1  0  0  0
 11  2  1  0  0  0
 22 13  1  0  0  0
 22 17  1  0  0  0
M  END
> <minimizedAffinity>
-6.25056

> <CNNscore>
0.3454437554

> <CNNaffinity>
5.0457754135

> <CNN_VS>
1.7430316210

> <CNNaffinity_variance>
0.1207755208

$$$$



 22 24  0  0  0  0  0  0  0  0999 V2000
   -9.4636   -6.2397  -26.1728 C   0  0  0  0  0  0  0  0  0  0  0  0
   -9.2524   -4.9836  -25.3805 C   0  0  0  0  0  0  0  0  0  0  0  0
   -7.8610   -4.5249  -25.0588 C   0  0  0  0  0  0  0  0  0  0  0  0
   -7.6497   -3.2688  -24.2666 C   0  0  0  0  0  0  0  0  0  0  0  0
   -6.2582   -2.8100  -23.9449 C   0  0  0  0  0  0  0  0  0  0  0  0
   -8.8299   -2.4714  -23.7961 N   0  0  0  0  0  0  0  0  0  0  0  0
   -8.6186   -1.2153  -23.0039 C   0  0  0  0  0  0  0  0  0  0  0  0
   -9.7989   -0.4180  -22.5333 O   0  0  0  0  0  0  0  0  0  0  0  0
  -10.2214   -2.9301  -24.1178 C   0  0  0  0  0  0  0  0  0  0  0  0
  -11.4015   -2.1328  -23.6473 C   0  0  0  0  0  0  0  0  0  0  0  0
  -10.4326   -4.1862  -24.9100 C   0  0  0  0  0  0  0  0  0  0  0  0
   -7.2272   -0.7566  -22.6821 C   0  0  0  0  0  0  0  0  0  0  0  0
   -6.8003   -0.6016  -21.2526 C   0  0  0  0  0  0  0  0  0  0  0  0
   -7.6124   -1.2238  -20.1556 C   0  0  0  0  0  0  0  0  0  0  0  0
   -7.1855   -1.0688  -18.7261 N   0  0  0  0  0  0  0  0  0  0  0  0
   -5.9465   -0.2916  -18.3934 C   0  0  0  0  0  0  0  0  0  0  0  0
   -5.1343    0.3307  -19.4903 C   0  0  0  0  0  0  0  0  0  0  0  0
   -3.8953    1.1079  -19.1576 C   0  0  0  0  0  0  0  0  0  0  0  0
   -3.0832    1.7301  -20.2545 C   0  0  0  0  0  0  0  0  0  0  0  0
   -3.5101    1.5751  -21.6841 C   0  0  0  0  0  0  0  0  0  0  0  0
   -4.7491    0.7979  -22.0168 C   0  0  0  0  0  0  0  0  0  0  0  0
   -5.5613    0.1757  -20.9199 C   0  0  0  0  0  0  0  0  0  0  0  0
  2  1  1  0  0  0
  2  3  1  0  0  0
  3  4  1  0  0  0
  4  5  1  0  0  0
  4  6  1  0  0  0
  6  7  1  0  0  0
  7  8  2  0  0  0
  7 12  1  0  0  0
 12 13  1  0  0  0
 13 14  2  0  0  0
 14 15  1  0  0  0
 15 16  2  0  0  0
 16 17  1  0  0  0
 17 18  2  0  0  0
 18 19  1  0  0  0
 19 20  2  0  0  0
 20 21  1  0  0  0
 21 22  2  0  0  0
  6  9  1  0  0  0
  9 10  1  0  0  0
  9 11  1  0  0  0
 11  2  1  0  0  0
 22 13  1  0  0  0
 22 17  1  0  0  0
M  END
> <minimizedAffinity>
-6.51832

> <CNNscore>
0.3404625058

> <CNNaffinity>
5.0442490578

> <CNN_VS>
1.7173776627

> <CNNaffinity_variance>
0.2562551498

$$$$
