


 39 44  0  0  0  0  0  0  0  0999 V2000
   -6.2521    3.9185  -23.6038 C   0  0  0  0  0  0  0  0  0  0  0  0
   -6.9671    2.7483  -22.9958 C   0  0  0  0  0  0  0  0  0  0  0  0
   -8.3676    2.6136  -23.5159 C   0  0  0  0  0  0  0  0  0  0  0  0
   -8.9957    1.4235  -22.8532 N   0  0  0  0  0  0  0  0  0  0  0  0
   -7.9833    0.8227  -21.9236 C   0  0  0  0  0  0  0  0  0  0  0  0
   -8.1886   -0.3849  -21.0577 O   0  0  0  0  0  0  0  0  0  0  0  0
   -6.7296    1.6415  -22.0117 C   0  0  0  0  0  0  0  0  0  0  0  0
   -6.6392    0.4883  -21.0567 C   0  0  0  0  0  0  0  0  0  0  0  0
   -5.3707    0.2433  -20.2946 N   0  0  0  0  0  0  0  0  0  0  0  0
   -4.1926    1.1515  -20.4874 C   0  0  0  0  0  0  0  0  0  0  0  0
   -2.9240    0.9064  -19.7253 O   0  0  0  0  0  0  0  0  0  0  0  0
   -4.2829    2.3047  -21.4425 C   0  0  0  0  0  0  0  0  0  0  0  0
   -3.1047    3.2128  -21.6353 C   0  0  0  0  0  0  0  0  0  0  0  0
   -3.1951    4.3659  -22.5903 C   0  0  0  0  0  0  0  0  0  0  0  0
   -4.4636    4.6109  -23.3525 C   0  0  0  0  0  0  0  0  0  0  0  0
   -5.6418    3.7028  -23.1596 C   0  0  0  0  0  0  0  0  0  0  0  0
   -5.5514    2.5497  -22.2046 C   0  0  0  0  0  0  0  0  0  0  0  0
  -10.3911    0.9221  -23.0802 C   0  0  0  0  0  0  0  0  0  0  0  0
  -11.5564    1.8549  -22.9328 C   0  0  0  0  0  0  0  0  0  0  0  0
  -12.9517    1.3536  -23.1599 N   0  0  0  0  0  0  0  0  0  0  0  0
  -13.1817   -0.0806  -23.5342 C   0  0  0  0  0  0  0  0  0  0  0  0
  -12.0164   -1.0134  -23.6816 C   0  0  0  0  0  0  0  0  0  0  0  0
  -12.2464   -2.4477  -24.0560 C   0  0  0  0  0  0  0  0  0  0  0  0
  -11.0810   -3.3805  -24.2033 C   0  0  0  0  0  0  0  0  0  0  0  0
   -9.6857   -2.8791  -23.9763 C   0  0  0  0  0  0  0  0  0  0  0  0
   -9.4557   -1.4449  -23.6019 C   0  0  0  0  0  0  0  0  0  0  0  0
  -10.6210   -0.5121  -23.4546 C   0  0  0  0  0  0  0  0  0  0  0  0
   -5.2804   -0.9099  -19.3395 C   0  0  0  0  0  0  0  0  0  0  0  0
   -5.3912   -2.3162  -19.8492 C   0  0  0  0  0  0  0  0  0  0  0  0
   -5.2442   -3.4707  -18.9029 O   0  0  0  0  0  0  0  0  0  0  0  0
   -5.6489   -2.5681  -21.3053 N   0  0  0  0  0  0  0  0  0  0  0  0
   -5.7454   -1.8103  -21.9264 H   0  0  0  0  0  0  0  0  0  0  0  0
   -5.7597   -3.9745  -21.8151 C   0  0  0  0  0  0  0  0  0  0  0  0
   -6.2489   -4.2304  -23.2098 C   0  0  0  0  0  0  0  0  0  0  0  0
   -6.1225   -3.2933  -24.3742 C   0  0  0  0  0  0  0  0  0  0  0  0
   -6.7458   -3.9520  -25.5690 C   0  0  0  0  0  0  0  0  0  0  0  0
   -7.2574   -5.2962  -25.1430 N   0  0  0  0  0  0  0  0  0  0  0  0
   -6.9502   -5.4682  -23.6849 N   0  0  0  0  0  0  0  0  0  0  0  0
   -7.2856   -6.6675  -22.8488 C   0  0  0  0  0  0  0  0  0  0  0  0
  2  1  1  0  0  0
  2  3  1  0  0  0
  3  4  1  0  0  0
  4 18  1  0  0  0
 18 19  2  0  0  0
 19 20  1  0  0  0
 20 21  2  0  0  0
 21 22  1  0  0  0
 22 23  2  0  0  0
 23 24  1  0  0  0
 24 25  2  0  0  0
 25 26  1  0  0  0
 26 27  2  0  0  0
  4  5  1  0  0  0
  5  6  2  0  0  0
  5  7  1  0  0  0
  7  8  1  0  0  0
  8  9  1  0  0  0
  9 28  1  0  0  0
 28 29  1  0  0  0
 29 30  2  0  0  0
 29 31  1  0  0  0
 31 33  1  0  0  0
 33 34  1  0  0  0
 34 35  2  0  0  0
 35 36  1  0  0  0
 36 37  2  0  0  0
 37 38  1  0  0  0
 38 39  1  0  0  0
  9 10  1  0  0  0
 10 11  2  0  0  0
 10 12  1  0  0  0
 12 13  2  0  0  0
 13 14  1  0  0  0
 14 15  2  0  0  0
 15 16  1  0  0  0
 16 17  2  0  0  0
  7  2  1  0  0  0
 38 34  1  0  0  0
 17 12  1  0  0  0
 27 18  1  0  0  0
 17  7  1  0  0  0
 27 22  1  0  0  0
 31 32  1  0  0  0
M  END
> <minimizedAffinity>
-8.46225

> <CNNscore>
0.4845359027

> <CNNaffinity>
6.6910657883

> <CNN_VS>
3.2420616150

> <CNNaffinity_variance>
0.0211685505

$$$$



 39 44  0  0  0  0  0  0  0  0999 V2000
   -7.2842   -0.2033  -21.1049 C   0  0  0  0  0  0  0  0  0  0  0  0
   -8.4458   -0.2874  -22.0504 C   0  0  0  0  0  0  0  0  0  0  0  0
   -9.2404    0.9845  -22.0786 C   0  0  0  0  0  0  0  0  0  0  0  0
  -10.3721    0.8026  -23.0462 N   0  0  0  0  0  0  0  0  0  0  0  0
  -10.2767   -0.5817  -23.6160 C   0  0  0  0  0  0  0  0  0  0  0  0
  -11.2084   -1.1862  -24.6243 O   0  0  0  0  0  0  0  0  0  0  0  0
   -9.0862   -1.2554  -23.0006 C   0  0  0  0  0  0  0  0  0  0  0  0
   -9.8323   -2.1111  -23.9809 C   0  0  0  0  0  0  0  0  0  0  0  0
   -9.3644   -3.5075  -24.2656 N   0  0  0  0  0  0  0  0  0  0  0  0
   -8.1504   -4.0482  -23.5700 C   0  0  0  0  0  0  0  0  0  0  0  0
   -7.6825   -5.4447  -23.8547 O   0  0  0  0  0  0  0  0  0  0  0  0
   -7.4043   -3.1925  -22.5896 C   0  0  0  0  0  0  0  0  0  0  0  0
   -6.1904   -3.7332  -21.8940 C   0  0  0  0  0  0  0  0  0  0  0  0
   -5.4443   -2.8775  -20.9137 C   0  0  0  0  0  0  0  0  0  0  0  0
   -5.9122   -1.4811  -20.6289 C   0  0  0  0  0  0  0  0  0  0  0  0
   -7.1262   -0.9403  -21.3246 C   0  0  0  0  0  0  0  0  0  0  0  0
   -7.8722   -1.7961  -22.3049 C   0  0  0  0  0  0  0  0  0  0  0  0
  -11.4158    1.8254  -23.3847 C   0  0  0  0  0  0  0  0  0  0  0  0
  -12.7946    1.7099  -22.8057 C   0  0  0  0  0  0  0  0  0  0  0  0
  -13.8383    2.7327  -23.1441 N   0  0  0  0  0  0  0  0  0  0  0  0
  -13.5031    3.8710  -24.0616 C   0  0  0  0  0  0  0  0  0  0  0  0
  -12.1241    3.9865  -24.6406 C   0  0  0  0  0  0  0  0  0  0  0  0
  -11.7889    5.1250  -25.5581 C   0  0  0  0  0  0  0  0  0  0  0  0
  -10.4100    5.2404  -26.1371 C   0  0  0  0  0  0  0  0  0  0  0  0
   -9.3664    4.2176  -25.7986 C   0  0  0  0  0  0  0  0  0  0  0  0
   -9.7016    3.0793  -24.8812 C   0  0  0  0  0  0  0  0  0  0  0  0
  -11.0804    2.9637  -24.3022 C   0  0  0  0  0  0  0  0  0  0  0  0
  -10.1105   -4.3633  -25.2460 C   0  0  0  0  0  0  0  0  0  0  0  0
   -9.5206   -4.6457  -26.5959 C   0  0  0  0  0  0  0  0  0  0  0  0
   -9.6017   -3.6131  -27.6808 O   0  0  0  0  0  0  0  0  0  0  0  0
   -8.8497   -5.9609  -26.8608 N   0  0  0  0  0  0  0  0  0  0  0  0
   -8.7965   -6.6386  -26.1488 H   0  0  0  0  0  0  0  0  0  0  0  0
   -8.2598   -6.2434  -28.2108 C   0  0  0  0  0  0  0  0  0  0  0  0
   -6.7737   -6.3731  -28.3676 C   0  0  0  0  0  0  0  0  0  0  0  0
   -6.0405   -7.5911  -28.8461 C   0  0  0  0  0  0  0  0  0  0  0  0
   -4.5735   -7.2783  -28.8477 C   0  0  0  0  0  0  0  0  0  0  0  0
   -4.4000   -5.8669  -28.3702 N   0  0  0  0  0  0  0  0  0  0  0  0
   -5.7598   -5.3075  -28.0735 N   0  0  0  0  0  0  0  0  0  0  0  0
   -6.0540   -3.9252  -27.5710 C   0  0  0  0  0  0  0  0  0  0  0  0
  2  1  1  0  0  0
  2  3  1  0  0  0
  3  4  1  0  0  0
  4 18  1  0  0  0
 18 19  2  0  0  0
 19 20  1  0  0  0
 20 21  2  0  0  0
 21 22  1  0  0  0
 22 23  2  0  0  0
 23 24  1  0  0  0
 24 25  2  0  0  0
 25 26  1  0  0  0
 26 27  2  0  0  0
  4  5  1  0  0  0
  5  6  2  0  0  0
  5  7  1  0  0  0
  7  8  1  0  0  0
  8  9  1  0  0  0
  9 28  1  0  0  0
 28 29  1  0  0  0
 29 30  2  0  0  0
 29 31  1  0  0  0
 31 33  1  0  0  0
 33 34  1  0  0  0
 34 35  2  0  0  0
 35 36  1  0  0  0
 36 37  2  0  0  0
 37 38  1  0  0  0
 38 39  1  0  0  0
  9 10  1  0  0  0
 10 11  2  0  0  0
 10 12  1  0  0  0
 12 13  2  0  0  0
 13 14  1  0  0  0
 14 15  2  0  0  0
 15 16  1  0  0  0
 16 17  2  0  0  0
  7  2  1  0  0  0
 38 34  1  0  0  0
 17 12  1  0  0  0
 27 18  1  0  0  0
 17  7  1  0  0  0
 27 22  1  0  0  0
 31 32  1  0  0  0
M  END
> <minimizedAffinity>
-8.23591

> <CNNscore>
0.3068179786

> <CNNaffinity>
6.1808390617

> <CNN_VS>
1.8963925838

> <CNNaffinity_variance>
0.1843583286

$$$$



 39 44  0  0  0  0  0  0  0  0999 V2000
   -6.0652    4.0738  -23.6335 C   0  0  0  0  0  0  0  0  0  0  0  0
   -6.8431    2.9265  -23.0601 C   0  0  0  0  0  0  0  0  0  0  0  0
   -8.2373    2.8624  -23.6097 C   0  0  0  0  0  0  0  0  0  0  0  0
   -8.9303    1.6905  -22.9801 N   0  0  0  0  0  0  0  0  0  0  0  0
   -7.9643    1.0302  -22.0415 C   0  0  0  0  0  0  0  0  0  0  0  0
   -8.2399   -0.1812  -21.2011 O   0  0  0  0  0  0  0  0  0  0  0  0
   -6.6743    1.7941  -22.0909 C   0  0  0  0  0  0  0  0  0  0  0  0
   -6.6540    0.6225  -21.1546 C   0  0  0  0  0  0  0  0  0  0  0  0
   -5.4132    0.3091  -20.3722 N   0  0  0  0  0  0  0  0  0  0  0  0
   -4.1927    1.1673  -20.5262 C   0  0  0  0  0  0  0  0  0  0  0  0
   -2.9518    0.8539  -19.7438 O   0  0  0  0  0  0  0  0  0  0  0  0
   -4.2129    2.3390  -21.4626 C   0  0  0  0  0  0  0  0  0  0  0  0
   -2.9924    3.1972  -21.6165 C   0  0  0  0  0  0  0  0  0  0  0  0
   -3.0127    4.3689  -22.5529 C   0  0  0  0  0  0  0  0  0  0  0  0
   -4.2536    4.6823  -23.3353 C   0  0  0  0  0  0  0  0  0  0  0  0
   -5.4741    3.8241  -23.1813 C   0  0  0  0  0  0  0  0  0  0  0  0
   -5.4538    2.6524  -22.2449 C   0  0  0  0  0  0  0  0  0  0  0  0
  -10.3414    1.2551  -23.2431 C   0  0  0  0  0  0  0  0  0  0  0  0
  -10.6712   -0.2053  -23.3334 C   0  0  0  0  0  0  0  0  0  0  0  0
  -12.0824   -0.6406  -23.5964 N   0  0  0  0  0  0  0  0  0  0  0  0
  -13.1637    0.3846  -23.7689 C   0  0  0  0  0  0  0  0  0  0  0  0
  -12.8338    1.8451  -23.6785 C   0  0  0  0  0  0  0  0  0  0  0  0
  -13.9152    2.8703  -23.8510 C   0  0  0  0  0  0  0  0  0  0  0  0
  -13.5852    4.3308  -23.7606 C   0  0  0  0  0  0  0  0  0  0  0  0
  -12.1741    4.7660  -23.4977 C   0  0  0  0  0  0  0  0  0  0  0  0
  -11.0928    3.7408  -23.3252 C   0  0  0  0  0  0  0  0  0  0  0  0
  -11.4227    2.2804  -23.4156 C   0  0  0  0  0  0  0  0  0  0  0  0
   -5.3929   -0.8627  -19.4358 C   0  0  0  0  0  0  0  0  0  0  0  0
   -5.5233   -2.2562  -19.9753 C   0  0  0  0  0  0  0  0  0  0  0  0
   -5.1610   -3.4304  -19.1150 O   0  0  0  0  0  0  0  0  0  0  0  0
   -6.0159   -2.4755  -21.3750 N   0  0  0  0  0  0  0  0  0  0  0  0
   -6.2537   -1.7048  -21.9395 H   0  0  0  0  0  0  0  0  0  0  0  0
   -6.1463   -3.8691  -21.9145 C   0  0  0  0  0  0  0  0  0  0  0  0
   -7.1136   -4.1562  -23.0244 C   0  0  0  0  0  0  0  0  0  0  0  0
   -7.7976   -3.1348  -23.8840 C   0  0  0  0  0  0  0  0  0  0  0  0
   -8.6735   -3.8624  -24.8604 C   0  0  0  0  0  0  0  0  0  0  0  0
   -8.5308   -5.3335  -24.6042 N   0  0  0  0  0  0  0  0  0  0  0  0
   -7.5667   -5.5150  -23.4695 N   0  0  0  0  0  0  0  0  0  0  0  0
   -7.1321   -6.8254  -22.8829 C   0  0  0  0  0  0  0  0  0  0  0  0
  2  1  1  0  0  0
  2  3  1  0  0  0
  3  4  1  0  0  0
  4 18  1  0  0  0
 18 19  2  0  0  0
 19 20  1  0  0  0
 20 21  2  0  0  0
 21 22  1  0  0  0
 22 23  2  0  0  0
 23 24  1  0  0  0
 24 25  2  0  0  0
 25 26  1  0  0  0
 26 27  2  0  0  0
  4  5  1  0  0  0
  5  6  2  0  0  0
  5  7  1  0  0  0
  7  8  1  0  0  0
  8  9  1  0  0  0
  9 28  1  0  0  0
 28 29  1  0  0  0
 29 30  2  0  0  0
 29 31  1  0  0  0
 31 33  1  0  0  0
 33 34  1  0  0  0
 34 35  2  0  0  0
 35 36  1  0  0  0
 36 37  2  0  0  0
 37 38  1  0  0  0
 38 39  1  0  0  0
  9 10  1  0  0  0
 10 11  2  0  0  0
 10 12  1  0  0  0
 12 13  2  0  0  0
 13 14  1  0  0  0
 14 15  2  0  0  0
 15 16  1  0  0  0
 16 17  2  0  0  0
  7  2  1  0  0  0
 38 34  1  0  0  0
 17 12  1  0  0  0
 27 18  1  0  0  0
 17  7  1  0  0  0
 27 22  1  0  0  0
 31 32  1  0  0  0
M  END
> <minimizedAffinity>
-9.16811

> <CNNscore>
0.2688609958

> <CNNaffinity>
6.3531742096

> <CNN_VS>
1.7081207037

> <CNNaffinity_variance>
0.2055471241

$$$$



 39 44  0  0  0  0  0  0  0  0999 V2000
   -5.8529   -5.4794  -23.1955 C   0  0  0  0  0  0  0  0  0  0  0  0
   -6.4493   -4.2082  -22.6675 C   0  0  0  0  0  0  0  0  0  0  0  0
   -5.5867   -3.5779  -21.6146 C   0  0  0  0  0  0  0  0  0  0  0  0
   -6.2633   -2.3215  -21.1522 N   0  0  0  0  0  0  0  0  0  0  0  0
   -7.5440   -2.1754  -21.9194 C   0  0  0  0  0  0  0  0  0  0  0  0
   -8.5356   -1.0592  -21.7754 O   0  0  0  0  0  0  0  0  0  0  0  0
   -7.6589   -3.3415  -22.8559 C   0  0  0  0  0  0  0  0  0  0  0  0
   -8.8082   -2.3808  -22.9340 C   0  0  0  0  0  0  0  0  0  0  0  0
   -9.9349   -2.6354  -23.8909 N   0  0  0  0  0  0  0  0  0  0  0  0
   -9.9124   -3.8507  -24.7697 C   0  0  0  0  0  0  0  0  0  0  0  0
  -11.0391   -4.1054  -25.7266 O   0  0  0  0  0  0  0  0  0  0  0  0
   -8.7631   -4.8115  -24.6917 C   0  0  0  0  0  0  0  0  0  0  0  0
   -8.7405   -6.0269  -25.5705 C   0  0  0  0  0  0  0  0  0  0  0  0
   -7.5913   -6.9876  -25.4924 C   0  0  0  0  0  0  0  0  0  0  0  0
   -6.4645   -6.7330  -24.5356 C   0  0  0  0  0  0  0  0  0  0  0  0
   -6.4871   -5.5176  -23.6567 C   0  0  0  0  0  0  0  0  0  0  0  0
   -7.6363   -4.5569  -23.7348 C   0  0  0  0  0  0  0  0  0  0  0  0
   -5.7494   -1.3770  -20.1064 C   0  0  0  0  0  0  0  0  0  0  0  0
   -6.2046   -1.5136  -18.6837 C   0  0  0  0  0  0  0  0  0  0  0  0
   -5.6908   -0.5691  -17.6378 N   0  0  0  0  0  0  0  0  0  0  0  0
   -4.7217    0.5120  -18.0147 C   0  0  0  0  0  0  0  0  0  0  0  0
   -4.2665    0.6486  -19.4374 C   0  0  0  0  0  0  0  0  0  0  0  0
   -3.2973    1.7298  -19.8142 C   0  0  0  0  0  0  0  0  0  0  0  0
   -2.8422    1.8664  -21.2370 C   0  0  0  0  0  0  0  0  0  0  0  0
   -3.3560    0.9219  -22.2828 C   0  0  0  0  0  0  0  0  0  0  0  0
   -4.3251   -0.1592  -21.9059 C   0  0  0  0  0  0  0  0  0  0  0  0
   -4.7803   -0.2959  -20.4833 C   0  0  0  0  0  0  0  0  0  0  0  0
  -11.0843   -1.6746  -23.9689 C   0  0  0  0  0  0  0  0  0  0  0  0
  -10.8392   -0.2002  -23.8423 C   0  0  0  0  0  0  0  0  0  0  0  0
   -9.7641    0.4542  -24.6584 O   0  0  0  0  0  0  0  0  0  0  0  0
  -11.6692    0.6198  -22.8997 N   0  0  0  0  0  0  0  0  0  0  0  0
  -12.3748    0.1903  -22.3641 H   0  0  0  0  0  0  0  0  0  0  0  0
  -11.4241    2.0943  -22.7731 C   0  0  0  0  0  0  0  0  0  0  0  0
  -11.9559    3.0350  -23.8133 C   0  0  0  0  0  0  0  0  0  0  0  0
  -13.4032    3.3075  -24.0984 C   0  0  0  0  0  0  0  0  0  0  0  0
  -13.4756    4.3093  -25.2124 C   0  0  0  0  0  0  0  0  0  0  0  0
  -12.0730    4.6560  -25.6159 N   0  0  0  0  0  0  0  0  0  0  0  0
  -11.1339    3.8684  -24.7512 N   0  0  0  0  0  0  0  0  0  0  0  0
   -9.6357    3.9075  -24.8134 C   0  0  0  0  0  0  0  0  0  0  0  0
  2  1  1  0  0  0
  2  3  1  0  0  0
  3  4  1  0  0  0
  4 18  1  0  0  0
 18 19  2  0  0  0
 19 20  1  0  0  0
 20 21  2  0  0  0
 21 22  1  0  0  0
 22 23  2  0  0  0
 23 24  1  0  0  0
 24 25  2  0  0  0
 25 26  1  0  0  0
 26 27  2  0  0  0
  4  5  1  0  0  0
  5  6  2  0  0  0
  5  7  1  0  0  0
  7  8  1  0  0  0
  8  9  1  0  0  0
  9 28  1  0  0  0
 28 29  1  0  0  0
 29 30  2  0  0  0
 29 31  1  0  0  0
 31 33  1  0  0  0
 33 34  1  0  0  0
 34 35  2  0  0  0
 35 36  1  0  0  0
 36 37  2  0  0  0
 37 38  1  0  0  0
 38 39  1  0  0  0
  9 10  1  0  0  0
 10 11  2  0  0  0
 10 12  1  0  0  0
 12 13  2  0  0  0
 13 14  1  0  0  0
 14 15  2  0  0  0
 15 16  1  0  0  0
 16 17  2  0  0  0
  7  2  1  0  0  0
 38 34  1  0  0  0
 17 12  1  0  0  0
 27 18  1  0  0  0
 17  7  1  0  0  0
 27 22  1  0  0  0
 31 32  1  0  0  0
M  END
> <minimizedAffinity>
-8.77086

> <CNNscore>
0.2686049938

> <CNNaffinity>
6.2766513824

> <CNN_VS>
1.6859399080

> <CNNaffinity_variance>
0.1584175378

$$$$



 39 44  0  0  0  0  0  0  0  0999 V2000
   -5.8014   -5.3949  -23.3337 C   0  0  0  0  0  0  0  0  0  0  0  0
   -6.4293   -4.1661  -22.7456 C   0  0  0  0  0  0  0  0  0  0  0  0
   -5.5537   -3.5298  -21.7071 C   0  0  0  0  0  0  0  0  0  0  0  0
   -6.2635   -2.3173  -21.1820 N   0  0  0  0  0  0  0  0  0  0  0  0
   -7.5778   -2.2041  -21.8960 C   0  0  0  0  0  0  0  0  0  0  0  0
   -8.6087   -1.1358  -21.6813 O   0  0  0  0  0  0  0  0  0  0  0  0
   -7.6803   -3.3468  -22.8624 C   0  0  0  0  0  0  0  0  0  0  0  0
   -8.8707   -2.4342  -22.8683 C   0  0  0  0  0  0  0  0  0  0  0  0
  -10.0220   -2.7092  -23.7896 N   0  0  0  0  0  0  0  0  0  0  0  0
   -9.9829   -3.8968  -24.7050 C   0  0  0  0  0  0  0  0  0  0  0  0
  -11.1342   -4.1718  -25.6264 O   0  0  0  0  0  0  0  0  0  0  0  0
   -8.7925   -4.8095  -24.6991 C   0  0  0  0  0  0  0  0  0  0  0  0
   -8.7534   -5.9971  -25.6145 C   0  0  0  0  0  0  0  0  0  0  0  0
   -7.5630   -6.9097  -25.6086 C   0  0  0  0  0  0  0  0  0  0  0  0
   -6.4117   -6.6346  -24.6873 C   0  0  0  0  0  0  0  0  0  0  0  0
   -6.4508   -5.4470  -23.7719 C   0  0  0  0  0  0  0  0  0  0  0  0
   -7.6412   -4.5344  -23.7778 C   0  0  0  0  0  0  0  0  0  0  0  0
   -5.7494   -1.3820  -20.1280 C   0  0  0  0  0  0  0  0  0  0  0  0
   -6.2300   -1.5097  -18.7129 C   0  0  0  0  0  0  0  0  0  0  0  0
   -5.7158   -0.5745  -17.6589 N   0  0  0  0  0  0  0  0  0  0  0  0
   -4.7210    0.4885  -18.0201 C   0  0  0  0  0  0  0  0  0  0  0  0
   -4.2404    0.6162  -19.4352 C   0  0  0  0  0  0  0  0  0  0  0  0
   -3.2456    1.6793  -19.7964 C   0  0  0  0  0  0  0  0  0  0  0  0
   -2.7650    1.8069  -21.2116 C   0  0  0  0  0  0  0  0  0  0  0  0
   -3.2792    0.8717  -22.2655 C   0  0  0  0  0  0  0  0  0  0  0  0
   -4.2740   -0.1913  -21.9043 C   0  0  0  0  0  0  0  0  0  0  0  0
   -4.7546   -0.3190  -20.4893 C   0  0  0  0  0  0  0  0  0  0  0  0
  -11.2124   -1.7965  -23.7955 C   0  0  0  0  0  0  0  0  0  0  0  0
  -11.0231   -0.3159  -23.6478 C   0  0  0  0  0  0  0  0  0  0  0  0
  -12.0910    0.5160  -23.0017 O   0  0  0  0  0  0  0  0  0  0  0  0
   -9.7658    0.3328  -24.1462 N   0  0  0  0  0  0  0  0  0  0  0  0
   -9.0649   -0.2132  -24.5703 H   0  0  0  0  0  0  0  0  0  0  0  0
   -9.5764    1.8135  -23.9985 C   0  0  0  0  0  0  0  0  0  0  0  0
   -9.7713    2.7162  -25.1805 C   0  0  0  0  0  0  0  0  0  0  0  0
   -9.0515    2.6183  -26.4928 C   0  0  0  0  0  0  0  0  0  0  0  0
   -9.5556    3.7168  -27.3811 C   0  0  0  0  0  0  0  0  0  0  0  0
  -10.5871    4.4936  -26.6177 N   0  0  0  0  0  0  0  0  0  0  0  0
  -10.7204    3.8752  -25.2577 N   0  0  0  0  0  0  0  0  0  0  0  0
  -11.6411    4.3350  -24.1664 C   0  0  0  0  0  0  0  0  0  0  0  0
  2  1  1  0  0  0
  2  3  1  0  0  0
  3  4  1  0  0  0
  4 18  1  0  0  0
 18 19  2  0  0  0
 19 20  1  0  0  0
 20 21  2  0  0  0
 21 22  1  0  0  0
 22 23  2  0  0  0
 23 24  1  0  0  0
 24 25  2  0  0  0
 25 26  1  0  0  0
 26 27  2  0  0  0
  4  5  1  0  0  0
  5  6  2  0  0  0
  5  7  1  0  0  0
  7  8  1  0  0  0
  8  9  1  0  0  0
  9 28  1  0  0  0
 28 29  1  0  0  0
 29 30  2  0  0  0
 29 31  1  0  0  0
 31 33  1  0  0  0
 33 34  1  0  0  0
 34 35  2  0  0  0
 35 36  1  0  0  0
 36 37  2  0  0  0
 37 38  1  0  0  0
 38 39  1  0  0  0
  9 10  1  0  0  0
 10 11  2  0  0  0
 10 12  1  0  0  0
 12 13  2  0  0  0
 13 14  1  0  0  0
 14 15  2  0  0  0
 15 16  1  0  0  0
 16 17  2  0  0  0
  7  2  1  0  0  0
 38 34  1  0  0  0
 17 12  1  0  0  0
 27 18  1  0  0  0
 17  7  1  0  0  0
 27 22  1  0  0  0
 31 32  1  0  0  0
M  END
> <minimizedAffinity>
-8.31224

> <CNNscore>
0.2629182637

> <CNNaffinity>
6.2079515457

> <CNN_VS>
1.6321837902

> <CNNaffinity_variance>
0.0772045776

$$$$



 39 44  0  0  0  0  0  0  0  0999 V2000
  -12.5056   -0.5948  -23.6881 C   0  0  0  0  0  0  0  0  0  0  0  0
  -11.0533   -0.9539  -23.7969 C   0  0  0  0  0  0  0  0  0  0  0  0
  -10.8457   -2.4373  -23.8775 C   0  0  0  0  0  0  0  0  0  0  0  0
   -9.3717   -2.6940  -23.9830 N   0  0  0  0  0  0  0  0  0  0  0  0
   -8.6682   -1.3693  -23.9675 C   0  0  0  0  0  0  0  0  0  0  0  0
   -7.1856   -1.1573  -24.0522 O   0  0  0  0  0  0  0  0  0  0  0  0
   -9.7074   -0.2938  -23.8525 C   0  0  0  0  0  0  0  0  0  0  0  0
   -8.3005    0.2220  -23.9186 C   0  0  0  0  0  0  0  0  0  0  0  0
   -8.0397    1.6983  -23.8681 N   0  0  0  0  0  0  0  0  0  0  0  0
   -9.1859    2.6588  -23.7515 C   0  0  0  0  0  0  0  0  0  0  0  0
   -8.9252    4.1351  -23.7010 O   0  0  0  0  0  0  0  0  0  0  0  0
  -10.5930    2.1430  -23.6854 C   0  0  0  0  0  0  0  0  0  0  0  0
  -11.7392    3.1035  -23.5688 C   0  0  0  0  0  0  0  0  0  0  0  0
  -13.1461    2.5877  -23.5027 C   0  0  0  0  0  0  0  0  0  0  0  0
  -13.4069    1.1114  -23.5532 C   0  0  0  0  0  0  0  0  0  0  0  0
  -12.2607    0.1509  -23.6698 C   0  0  0  0  0  0  0  0  0  0  0  0
  -10.8537    0.6667  -23.7359 C   0  0  0  0  0  0  0  0  0  0  0  0
   -8.7161   -4.0393  -24.0858 C   0  0  0  0  0  0  0  0  0  0  0  0
   -7.9714   -4.6024  -22.9119 C   0  0  0  0  0  0  0  0  0  0  0  0
   -7.3159   -5.9476  -23.0148 N   0  0  0  0  0  0  0  0  0  0  0  0
   -7.4051   -6.7297  -24.2916 C   0  0  0  0  0  0  0  0  0  0  0  0
   -8.1499   -6.1666  -25.4656 C   0  0  0  0  0  0  0  0  0  0  0  0
   -8.2392   -6.9487  -26.7424 C   0  0  0  0  0  0  0  0  0  0  0  0
   -8.9840   -6.3855  -27.9164 C   0  0  0  0  0  0  0  0  0  0  0  0
   -9.6394   -5.0403  -27.8134 C   0  0  0  0  0  0  0  0  0  0  0  0
   -9.5502   -4.2582  -26.5366 C   0  0  0  0  0  0  0  0  0  0  0  0
   -8.8054   -4.8213  -25.3627 C   0  0  0  0  0  0  0  0  0  0  0  0
   -6.6327    2.2141  -23.9341 C   0  0  0  0  0  0  0  0  0  0  0  0
   -5.6671    1.9028  -22.8293 C   0  0  0  0  0  0  0  0  0  0  0  0
   -5.2638    2.9753  -21.8613 O   0  0  0  0  0  0  0  0  0  0  0  0
   -5.1049    0.5189  -22.6924 N   0  0  0  0  0  0  0  0  0  0  0  0
   -5.3696   -0.1850  -23.3278 H   0  0  0  0  0  0  0  0  0  0  0  0
   -4.1392    0.2076  -21.5876 C   0  0  0  0  0  0  0  0  0  0  0  0
   -4.6505   -0.1631  -20.2270 C   0  0  0  0  0  0  0  0  0  0  0  0
   -4.5876    0.6943  -18.9977 C   0  0  0  0  0  0  0  0  0  0  0  0
   -5.2126   -0.0689  -17.8678 C   0  0  0  0  0  0  0  0  0  0  0  0
   -5.6618   -1.3981  -18.3987 N   0  0  0  0  0  0  0  0  0  0  0  0
   -5.3143   -1.4562  -19.8567 N   0  0  0  0  0  0  0  0  0  0  0  0
   -5.5835   -2.6057  -20.7820 C   0  0  0  0  0  0  0  0  0  0  0  0
  2  1  1  0  0  0
  2  3  1  0  0  0
  3  4  1  0  0  0
  4 18  1  0  0  0
 18 19  2  0  0  0
 19 20  1  0  0  0
 20 21  2  0  0  0
 21 22  1  0  0  0
 22 23  2  0  0  0
 23 24  1  0  0  0
 24 25  2  0  0  0
 25 26  1  0  0  0
 26 27  2  0  0  0
  4  5  1  0  0  0
  5  6  2  0  0  0
  5  7  1  0  0  0
  7  8  1  0  0  0
  8  9  1  0  0  0
  9 28  1  0  0  0
 28 29  1  0  0  0
 29 30  2  0  0  0
 29 31  1  0  0  0
 31 33  1  0  0  0
 33 34  1  0  0  0
 34 35  2  0  0  0
 35 36  1  0  0  0
 36 37  2  0  0  0
 37 38  1  0  0  0
 38 39  1  0  0  0
  9 10  1  0  0  0
 10 11  2  0  0  0
 10 12  1  0  0  0
 12 13  2  0  0  0
 13 14  1  0  0  0
 14 15  2  0  0  0
 15 16  1  0  0  0
 16 17  2  0  0  0
  7  2  1  0  0  0
 38 34  1  0  0  0
 17 12  1  0  0  0
 27 18  1  0  0  0
 17  7  1  0  0  0
 27 22  1  0  0  0
 31 32  1  0  0  0
M  END
> <minimizedAffinity>
-9.89668

> <CNNscore>
0.2569749057

> <CNNaffinity>
6.4651589394

> <CNN_VS>
1.6613836288

> <CNNaffinity_variance>
0.3291949928

$$$$



 39 44  0  0  0  0  0  0  0  0999 V2000
   -7.5565   -3.4209  -24.7150 C   0  0  0  0  0  0  0  0  0  0  0  0
   -7.6605   -2.1745  -23.8868 C   0  0  0  0  0  0  0  0  0  0  0  0
   -8.3787   -1.0758  -24.6127 C   0  0  0  0  0  0  0  0  0  0  0  0
   -8.4314    0.1199  -23.7086 N   0  0  0  0  0  0  0  0  0  0  0  0
   -7.7457   -0.2398  -22.4239 C   0  0  0  0  0  0  0  0  0  0  0  0
   -7.5678    0.6605  -21.2374 O   0  0  0  0  0  0  0  0  0  0  0  0
   -7.2693   -1.6579  -22.5340 C   0  0  0  0  0  0  0  0  0  0  0  0
   -6.9459   -1.0057  -21.2225 C   0  0  0  0  0  0  0  0  0  0  0  0
   -6.2078   -1.7724  -20.1654 N   0  0  0  0  0  0  0  0  0  0  0  0
   -5.7932   -3.1913  -20.4199 C   0  0  0  0  0  0  0  0  0  0  0  0
   -5.0551   -3.9581  -19.3628 O   0  0  0  0  0  0  0  0  0  0  0  0
   -6.1166   -3.8436  -21.7314 C   0  0  0  0  0  0  0  0  0  0  0  0
   -5.7019   -5.2624  -21.9858 C   0  0  0  0  0  0  0  0  0  0  0  0
   -6.0253   -5.9146  -23.2973 C   0  0  0  0  0  0  0  0  0  0  0  0
   -6.7634   -5.1479  -24.3544 C   0  0  0  0  0  0  0  0  0  0  0  0
   -7.1780   -3.7290  -24.1000 C   0  0  0  0  0  0  0  0  0  0  0  0
   -6.8546   -3.0768  -22.7885 C   0  0  0  0  0  0  0  0  0  0  0  0
   -9.0595    1.4431  -24.0324 C   0  0  0  0  0  0  0  0  0  0  0  0
   -8.2070    2.5810  -24.5101 C   0  0  0  0  0  0  0  0  0  0  0  0
   -8.8351    3.9041  -24.8339 N   0  0  0  0  0  0  0  0  0  0  0  0
  -10.3156    4.0893  -24.6798 C   0  0  0  0  0  0  0  0  0  0  0  0
  -11.1681    2.9513  -24.2020 C   0  0  0  0  0  0  0  0  0  0  0  0
  -12.6487    3.1364  -24.0479 C   0  0  0  0  0  0  0  0  0  0  0  0
  -13.5011    1.9984  -23.5702 C   0  0  0  0  0  0  0  0  0  0  0  0
  -12.8730    0.6753  -23.2465 C   0  0  0  0  0  0  0  0  0  0  0  0
  -11.3924    0.4902  -23.4005 C   0  0  0  0  0  0  0  0  0  0  0  0
  -10.5400    1.6281  -23.8783 C   0  0  0  0  0  0  0  0  0  0  0  0
   -5.8844   -1.1202  -18.8539 C   0  0  0  0  0  0  0  0  0  0  0  0
   -5.0433    0.1213  -18.8209 C   0  0  0  0  0  0  0  0  0  0  0  0
   -5.0559    1.0038  -17.6080 O   0  0  0  0  0  0  0  0  0  0  0  0
   -4.1895    0.4802  -20.0007 N   0  0  0  0  0  0  0  0  0  0  0  0
   -4.1812   -0.0990  -20.7968 H   0  0  0  0  0  0  0  0  0  0  0  0
   -3.3482    1.7218  -19.9678 C   0  0  0  0  0  0  0  0  0  0  0  0
   -1.9724    1.7115  -20.5651 C   0  0  0  0  0  0  0  0  0  0  0  0
   -0.6992    2.0594  -19.8524 C   0  0  0  0  0  0  0  0  0  0  0  0
    0.4320    1.9145  -20.8267 C   0  0  0  0  0  0  0  0  0  0  0  0
   -0.1421    1.4770  -22.1417 N   0  0  0  0  0  0  0  0  0  0  0  0
   -1.6281    1.3516  -21.9799 N   0  0  0  0  0  0  0  0  0  0  0  0
   -2.5992    0.9387  -23.0460 C   0  0  0  0  0  0  0  0  0  0  0  0
  2  1  1  0  0  0
  2  3  1  0  0  0
  3  4  1  0  0  0
  4 18  1  0  0  0
 18 19  2  0  0  0
 19 20  1  0  0  0
 20 21  2  0  0  0
 21 22  1  0  0  0
 22 23  2  0  0  0
 23 24  1  0  0  0
 24 25  2  0  0  0
 25 26  1  0  0  0
 26 27  2  0  0  0
  4  5  1  0  0  0
  5  6  2  0  0  0
  5  7  1  0  0  0
  7  8  1  0  0  0
  8  9  1  0  0  0
  9 28  1  0  0  0
 28 29  1  0  0  0
 29 30  2  0  0  0
 29 31  1  0  0  0
 31 33  1  0  0  0
 33 34  1  0  0  0
 34 35  2  0  0  0
 35 36  1  0  0  0
 36 37  2  0  0  0
 37 38  1  0  0  0
 38 39  1  0  0  0
  9 10  1  0  0  0
 10 11  2  0  0  0
 10 12  1  0  0  0
 12 13  2  0  0  0
 13 14  1  0  0  0
 14 15  2  0  0  0
 15 16  1  0  0  0
 16 17  2  0  0  0
  7  2  1  0  0  0
 38 34  1  0  0  0
 17 12  1  0  0  0
 27 18  1  0  0  0
 17  7  1  0  0  0
 27 22  1  0  0  0
 31 32  1  0  0  0
M  END
> <minimizedAffinity>
-9.24817

> <CNNscore>
0.1955915689

> <CNNaffinity>
6.1210913658

> <CNN_VS>
1.1972339153

> <CNNaffinity_variance>
0.2235982865

$$$$



 39 44  0  0  0  0  0  0  0  0999 V2000
  -12.3654   -0.4702  -23.4626 C   0  0  0  0  0  0  0  0  0  0  0  0
  -10.9005   -0.7637  -23.5966 C   0  0  0  0  0  0  0  0  0  0  0  0
  -10.6114   -2.2329  -23.5081 C   0  0  0  0  0  0  0  0  0  0  0  0
   -9.1306   -2.4235  -23.6522 N   0  0  0  0  0  0  0  0  0  0  0  0
   -8.5045   -1.0720  -23.8298 C   0  0  0  0  0  0  0  0  0  0  0  0
   -7.0413   -0.7950  -24.0100 O   0  0  0  0  0  0  0  0  0  0  0  0
   -9.5983   -0.0462  -23.7954 C   0  0  0  0  0  0  0  0  0  0  0  0
   -8.2273    0.5302  -23.9901 C   0  0  0  0  0  0  0  0  0  0  0  0
   -8.0501    2.0131  -24.1300 N   0  0  0  0  0  0  0  0  0  0  0  0
   -9.2439    2.9196  -24.0751 C   0  0  0  0  0  0  0  0  0  0  0  0
   -9.0667    4.4025  -24.2150 O   0  0  0  0  0  0  0  0  0  0  0  0
  -10.6150    2.3432  -23.8804 C   0  0  0  0  0  0  0  0  0  0  0  0
  -11.8088    3.2497  -23.8255 C   0  0  0  0  0  0  0  0  0  0  0  0
  -13.1799    2.6732  -23.6308 C   0  0  0  0  0  0  0  0  0  0  0  0
  -13.3571    1.1903  -23.4909 C   0  0  0  0  0  0  0  0  0  0  0  0
  -12.1632    0.2838  -23.5458 C   0  0  0  0  0  0  0  0  0  0  0  0
  -10.7922    0.8603  -23.7405 C   0  0  0  0  0  0  0  0  0  0  0  0
   -8.4035   -3.7352  -23.6238 C   0  0  0  0  0  0  0  0  0  0  0  0
   -7.2888   -3.9537  -22.6443 C   0  0  0  0  0  0  0  0  0  0  0  0
   -6.5617   -5.2654  -22.6158 N   0  0  0  0  0  0  0  0  0  0  0  0
   -6.9494   -6.3585  -23.5669 C   0  0  0  0  0  0  0  0  0  0  0  0
   -8.0642   -6.1400  -24.5465 C   0  0  0  0  0  0  0  0  0  0  0  0
   -8.4519   -7.2333  -25.4976 C   0  0  0  0  0  0  0  0  0  0  0  0
   -9.5668   -7.0147  -26.4771 C   0  0  0  0  0  0  0  0  0  0  0  0
  -10.2938   -5.7030  -26.5055 C   0  0  0  0  0  0  0  0  0  0  0  0
   -9.9060   -4.6098  -25.5544 C   0  0  0  0  0  0  0  0  0  0  0  0
   -8.7913   -4.8283  -24.5749 C   0  0  0  0  0  0  0  0  0  0  0  0
   -6.6790    2.5896  -24.3247 C   0  0  0  0  0  0  0  0  0  0  0  0
   -5.7544    2.7379  -23.1529 C   0  0  0  0  0  0  0  0  0  0  0  0
   -6.0337    1.9975  -21.8787 O   0  0  0  0  0  0  0  0  0  0  0  0
   -4.5505    3.6268  -23.2554 N   0  0  0  0  0  0  0  0  0  0  0  0
   -4.3672    4.1128  -24.0917 H   0  0  0  0  0  0  0  0  0  0  0  0
   -3.6259    3.7752  -22.0836 C   0  0  0  0  0  0  0  0  0  0  0  0
   -2.4757    2.8279  -21.9111 C   0  0  0  0  0  0  0  0  0  0  0  0
   -1.2945    2.6992  -22.8267 C   0  0  0  0  0  0  0  0  0  0  0  0
   -0.3935    1.6348  -22.2742 C   0  0  0  0  0  0  0  0  0  0  0  0
   -1.0179    1.1057  -21.0171 N   0  0  0  0  0  0  0  0  0  0  0  0
   -2.3047    1.8431  -20.7927 N   0  0  0  0  0  0  0  0  0  0  0  0
   -3.2539    1.6325  -19.6505 C   0  0  0  0  0  0  0  0  0  0  0  0
  2  1  1  0  0  0
  2  3  1  0  0  0
  3  4  1  0  0  0
  4 18  1  0  0  0
 18 19  2  0  0  0
 19 20  1  0  0  0
 20 21  2  0  0  0
 21 22  1  0  0  0
 22 23  2  0  0  0
 23 24  1  0  0  0
 24 25  2  0  0  0
 25 26  1  0  0  0
 26 27  2  0  0  0
  4  5  1  0  0  0
  5  6  2  0  0  0
  5  7  1  0  0  0
  7  8  1  0  0  0
  8  9  1  0  0  0
  9 28  1  0  0  0
 28 29  1  0  0  0
 29 30  2  0  0  0
 29 31  1  0  0  0
 31 33  1  0  0  0
 33 34  1  0  0  0
 34 35  2  0  0  0
 35 36  1  0  0  0
 36 37  2  0  0  0
 37 38  1  0  0  0
 38 39  1  0  0  0
  9 10  1  0  0  0
 10 11  2  0  0  0
 10 12  1  0  0  0
 12 13  2  0  0  0
 13 14  1  0  0  0
 14 15  2  0  0  0
 15 16  1  0  0  0
 16 17  2  0  0  0
  7  2  1  0  0  0
 38 34  1  0  0  0
 17 12  1  0  0  0
 27 18  1  0  0  0
 17  7  1  0  0  0
 27 22  1  0  0  0
 31 32  1  0  0  0
M  END
> <minimizedAffinity>
-8.29819

> <CNNscore>
0.1837911606

> <CNNaffinity>
6.2146100998

> <CNN_VS>
1.1421904564

> <CNNaffinity_variance>
0.0501484573

$$$$



 39 44  0  0  0  0  0  0  0  0999 V2000
   -7.1396   -3.9120  -23.4774 C   0  0  0  0  0  0  0  0  0  0  0  0
   -7.1860   -2.5147  -22.9338 C   0  0  0  0  0  0  0  0  0  0  0  0
   -5.8992   -2.1281  -22.2669 C   0  0  0  0  0  0  0  0  0  0  0  0
   -6.0437   -0.7240  -21.7595 N   0  0  0  0  0  0  0  0  0  0  0  0
   -7.4198   -0.2428  -22.1127 C   0  0  0  0  0  0  0  0  0  0  0  0
   -7.9898    1.1080  -21.7958 O   0  0  0  0  0  0  0  0  0  0  0  0
   -8.1258   -1.3495  -22.8384 C   0  0  0  0  0  0  0  0  0  0  0  0
   -8.9509   -0.1086  -22.6671 C   0  0  0  0  0  0  0  0  0  0  0  0
  -10.3509   -0.0588  -23.2033 N   0  0  0  0  0  0  0  0  0  0  0  0
  -10.9258   -1.2499  -23.9109 C   0  0  0  0  0  0  0  0  0  0  0  0
  -12.3258   -1.2002  -24.4472 O   0  0  0  0  0  0  0  0  0  0  0  0
  -10.1007   -2.4909  -24.0823 C   0  0  0  0  0  0  0  0  0  0  0  0
  -10.6756   -3.6820  -24.7899 C   0  0  0  0  0  0  0  0  0  0  0  0
   -9.8505   -4.9229  -24.9612 C   0  0  0  0  0  0  0  0  0  0  0  0
   -8.4505   -4.9726  -24.4250 C   0  0  0  0  0  0  0  0  0  0  0  0
   -7.8756   -3.7815  -23.7174 C   0  0  0  0  0  0  0  0  0  0  0  0
   -8.7007   -2.5407  -23.5460 C   0  0  0  0  0  0  0  0  0  0  0  0
   -4.9960    0.0611  -21.0274 C   0  0  0  0  0  0  0  0  0  0  0  0
   -5.1515    0.3337  -19.5607 C   0  0  0  0  0  0  0  0  0  0  0  0
   -4.1038    1.1188  -18.8286 N   0  0  0  0  0  0  0  0  0  0  0  0
   -2.9006    1.6313  -19.5633 C   0  0  0  0  0  0  0  0  0  0  0  0
   -2.7451    1.3586  -21.0301 C   0  0  0  0  0  0  0  0  0  0  0  0
   -1.5419    1.8711  -21.7648 C   0  0  0  0  0  0  0  0  0  0  0  0
   -1.3865    1.5983  -23.2316 C   0  0  0  0  0  0  0  0  0  0  0  0
   -2.4342    0.8133  -23.9636 C   0  0  0  0  0  0  0  0  0  0  0  0
   -3.6373    0.3009  -23.2289 C   0  0  0  0  0  0  0  0  0  0  0  0
   -3.7928    0.5735  -21.7622 C   0  0  0  0  0  0  0  0  0  0  0  0
  -11.1760    1.1821  -23.0320 C   0  0  0  0  0  0  0  0  0  0  0  0
  -10.7318    2.4706  -23.6584 C   0  0  0  0  0  0  0  0  0  0  0  0
   -9.8205    2.4503  -24.8497 O   0  0  0  0  0  0  0  0  0  0  0  0
  -11.1988    3.7793  -23.0936 N   0  0  0  0  0  0  0  0  0  0  0  0
  -11.7969    3.7926  -22.3117 H   0  0  0  0  0  0  0  0  0  0  0  0
  -10.7545    5.0679  -23.7201 C   0  0  0  0  0  0  0  0  0  0  0  0
  -11.6423    5.7677  -24.7060 C   0  0  0  0  0  0  0  0  0  0  0  0
  -13.1030    6.0578  -24.5262 C   0  0  0  0  0  0  0  0  0  0  0  0
  -13.5887    6.7697  -25.7539 C   0  0  0  0  0  0  0  0  0  0  0  0
  -12.4282    6.9195  -26.6925 N   0  0  0  0  0  0  0  0  0  0  0  0
  -11.2253    6.3003  -26.0448 N   0  0  0  0  0  0  0  0  0  0  0  0
   -9.8473    6.2265  -26.6327 C   0  0  0  0  0  0  0  0  0  0  0  0
  2  1  1  0  0  0
  2  3  1  0  0  0
  3  4  1  0  0  0
  4 18  1  0  0  0
 18 19  2  0  0  0
 19 20  1  0  0  0
 20 21  2  0  0  0
 21 22  1  0  0  0
 22 23  2  0  0  0
 23 24  1  0  0  0
 24 25  2  0  0  0
 25 26  1  0  0  0
 26 27  2  0  0  0
  4  5  1  0  0  0
  5  6  2  0  0  0
  5  7  1  0  0  0
  7  8  1  0  0  0
  8  9  1  0  0  0
  9 28  1  0  0  0
 28 29  1  0  0  0
 29 30  2  0  0  0
 29 31  1  0  0  0
 31 33  1  0  0  0
 33 34  1  0  0  0
 34 35  2  0  0  0
 35 36  1  0  0  0
 36 37  2  0  0  0
 37 38  1  0  0  0
 38 39  1  0  0  0
  9 10  1  0  0  0
 10 11  2  0  0  0
 10 12  1  0  0  0
 12 13  2  0  0  0
 13 14  1  0  0  0
 14 15  2  0  0  0
 15 16  1  0  0  0
 16 17  2  0  0  0
  7  2  1  0  0  0
 38 34  1  0  0  0
 17 12  1  0  0  0
 27 18  1  0  0  0
 17  7  1  0  0  0
 27 22  1  0  0  0
 31 32  1  0  0  0
M  END
> <minimizedAffinity>
-8.15855

> <CNNscore>
0.1829093397

> <CNNaffinity>
6.1132292747

> <CNN_VS>
1.1181666851

> <CNNaffinity_variance>
0.0677874982

$$$$
