


 32 37  0  0  0  0  0  0  0  0999 V2000
   -8.7709    0.3565  -21.4963 O   0  0  0  0  0  0  0  0  0  0  0  0
   -8.2642   -1.0188  -21.8154 C   0  0  0  0  0  0  0  0  0  0  0  0
   -8.7159   -1.7131  -23.0659 N   0  0  0  0  0  0  0  0  0  0  0  0
   -8.2093   -3.0884  -23.3850 C   0  0  0  0  0  0  0  0  0  0  0  0
   -9.0903   -3.6716  -24.4497 C   0  0  0  0  0  0  0  0  0  0  0  0
   -8.5837   -5.0469  -24.7688 N   0  0  0  0  0  0  0  0  0  0  0  0
   -7.4928   -5.0334  -23.8363 C   0  0  0  0  0  0  0  0  0  0  0  0
   -8.6225   -4.1785  -24.3289 C   0  0  0  0  0  0  0  0  0  0  0  0
   -7.0795   -3.9434  -22.8923 C   0  0  0  0  0  0  0  0  0  0  0  0
   -9.4012   -4.7230  -25.2858 H   0  0  0  0  0  0  0  0  0  0  0  0
   -9.1686   -5.9898  -25.7782 C   0  0  0  0  0  0  0  0  0  0  0  0
   -9.0287   -7.1863  -26.6719 C   0  0  0  0  0  0  0  0  0  0  0  0
  -10.3214   -6.4264  -26.6327 C   0  0  0  0  0  0  0  0  0  0  0  0
   -7.3058   -1.6998  -20.8839 C   0  0  0  0  0  0  0  0  0  0  0  0
   -6.3528   -0.8848  -20.0608 C   0  0  0  0  0  0  0  0  0  0  0  0
   -6.5898   -0.7131  -18.5896 C   0  0  0  0  0  0  0  0  0  0  0  0
   -5.6369    0.1019  -17.7665 N   0  0  0  0  0  0  0  0  0  0  0  0
   -4.4469    0.7454  -18.4145 C   0  0  0  0  0  0  0  0  0  0  0  0
   -4.2099    0.5737  -19.8857 C   0  0  0  0  0  0  0  0  0  0  0  0
   -3.0199    1.2171  -20.5337 C   0  0  0  0  0  0  0  0  0  0  0  0
   -2.7829    1.0455  -22.0048 C   0  0  0  0  0  0  0  0  0  0  0  0
   -3.7358    0.2304  -22.8280 C   0  0  0  0  0  0  0  0  0  0  0  0
   -4.9258   -0.4130  -22.1800 C   0  0  0  0  0  0  0  0  0  0  0  0
   -5.1628   -0.2413  -20.7088 C   0  0  0  0  0  0  0  0  0  0  0  0
   -9.6744   -1.0321  -23.9974 C   0  0  0  0  0  0  0  0  0  0  0  0
  -11.1219   -0.9071  -23.6244 C   0  0  0  0  0  0  0  0  0  0  0  0
  -11.8834    0.3354  -23.9798 C   0  0  0  0  0  0  0  0  0  0  0  0
  -13.3309    0.4604  -23.6068 C   0  0  0  0  0  0  0  0  0  0  0  0
  -14.0169   -0.6572  -22.8783 C   0  0  0  0  0  0  0  0  0  0  0  0
  -13.2553   -1.8996  -22.5229 C   0  0  0  0  0  0  0  0  0  0  0  0
  -13.9413   -3.0171  -21.7944 Cl  0  0  0  0  0  0  0  0  0  0  0  0
  -11.8078   -2.0246  -22.8959 C   0  0  0  0  0  0  0  0  0  0  0  0
  1  2  2  0  0  0
  2 14  1  0  0  0
 14 15  1  0  0  0
 15 16  2  0  0  0
 16 17  1  0  0  0
 17 18  2  0  0  0
 18 19  1  0  0  0
 19 20  2  0  0  0
 20 21  1  0  0  0
 21 22  2  0  0  0
 22 23  1  0  0  0
 23 24  2  0  0  0
  2  3  1  0  0  0
  3 25  1  0  0  0
 25 26  1  0  0  0
 26 27  2  0  0  0
 27 28  1  0  0  0
 28 29  2  0  0  0
 29 30  1  0  0  0
 30 31  1  0  0  0
 30 32  2  0  0  0
  4  3  1  0  0  0
  4  5  1  0  0  0
  5  6  1  0  0  0
  6 11  1  0  0  0
 11 12  1  0  0  0
 12 13  1  0  0  0
  6  7  1  0  0  0
  7  8  1  0  0  0
  7  9  1  0  0  0
 24 15  1  0  0  0
 32 26  1  0  0  0
  8  4  1  0  0  0
 24 19  1  0  0  0
  9  4  1  0  0  0
 13 11  1  0  0  0
  6 10  1  0  0  0
M  CHG 1   6   1
M  END
> <minimizedAffinity>
-7.94118

> <CNNscore>
0.9025992751

> <CNNaffinity>
6.9466362000

> <CNN_VS>
6.2700285912

> <CNNaffinity_variance>
0.0227619465

$$$$



 32 37  0  0  0  0  0  0  0  0999 V2000
   -8.3866    0.4427  -21.3333 O   0  0  0  0  0  0  0  0  0  0  0  0
   -8.2397   -0.3110  -22.6220 C   0  0  0  0  0  0  0  0  0  0  0  0
   -7.4073   -1.5578  -22.6709 N   0  0  0  0  0  0  0  0  0  0  0  0
   -7.2604   -2.3114  -23.9594 C   0  0  0  0  0  0  0  0  0  0  0  0
   -8.2050   -3.4761  -23.9256 C   0  0  0  0  0  0  0  0  0  0  0  0
   -8.0581   -4.2297  -25.2142 N   0  0  0  0  0  0  0  0  0  0  0  0
   -7.0526   -3.3773  -25.7817 C   0  0  0  0  0  0  0  0  0  0  0  0
   -7.8926   -3.5371  -24.5494 C   0  0  0  0  0  0  0  0  0  0  0  0
   -6.4203   -2.1516  -25.1918 C   0  0  0  0  0  0  0  0  0  0  0  0
   -8.7343   -4.5906  -24.5412 H   0  0  0  0  0  0  0  0  0  0  0  0
   -8.8140   -5.4653  -25.6041 C   0  0  0  0  0  0  0  0  0  0  0  0
   -8.9026   -6.9600  -25.6933 C   0  0  0  0  0  0  0  0  0  0  0  0
  -10.0347   -6.1106  -26.1902 C   0  0  0  0  0  0  0  0  0  0  0  0
   -8.9252    0.1823  -23.8616 C   0  0  0  0  0  0  0  0  0  0  0  0
  -10.3400    0.6757  -23.7905 C   0  0  0  0  0  0  0  0  0  0  0  0
  -10.6534    2.1047  -24.1212 C   0  0  0  0  0  0  0  0  0  0  0  0
  -12.0682    2.5981  -24.0501 N   0  0  0  0  0  0  0  0  0  0  0  0
  -13.1695    1.6624  -23.6482 C   0  0  0  0  0  0  0  0  0  0  0  0
  -12.8561    0.2332  -23.3174 C   0  0  0  0  0  0  0  0  0  0  0  0
  -13.9573   -0.7025  -22.9155 C   0  0  0  0  0  0  0  0  0  0  0  0
  -13.6439   -2.1315  -22.5847 C   0  0  0  0  0  0  0  0  0  0  0  0
  -12.2291   -2.6249  -22.6559 C   0  0  0  0  0  0  0  0  0  0  0  0
  -11.1278   -1.6892  -23.0578 C   0  0  0  0  0  0  0  0  0  0  0  0
  -11.4413   -0.2601  -23.3885 C   0  0  0  0  0  0  0  0  0  0  0  0
   -6.7218   -2.0510  -21.4311 C   0  0  0  0  0  0  0  0  0  0  0  0
   -5.8669   -1.1184  -20.6253 C   0  0  0  0  0  0  0  0  0  0  0  0
   -6.1204   -0.9488  -19.1566 C   0  0  0  0  0  0  0  0  0  0  0  0
   -5.2655   -0.0161  -18.3508 C   0  0  0  0  0  0  0  0  0  0  0  0
   -4.1572    0.7470  -19.0137 C   0  0  0  0  0  0  0  0  0  0  0  0
   -3.9038    0.5774  -20.4824 C   0  0  0  0  0  0  0  0  0  0  0  0
   -2.7955    1.3405  -21.1452 Cl  0  0  0  0  0  0  0  0  0  0  0  0
   -4.7586   -0.3553  -21.2882 C   0  0  0  0  0  0  0  0  0  0  0  0
  1  2  2  0  0  0
  2 14  1  0  0  0
 14 15  1  0  0  0
 15 16  2  0  0  0
 16 17  1  0  0  0
 17 18  2  0  0  0
 18 19  1  0  0  0
 19 20  2  0  0  0
 20 21  1  0  0  0
 21 22  2  0  0  0
 22 23  1  0  0  0
 23 24  2  0  0  0
  2  3  1  0  0  0
  3 25  1  0  0  0
 25 26  1  0  0  0
 26 27  2  0  0  0
 27 28  1  0  0  0
 28 29  2  0  0  0
 29 30  1  0  0  0
 30 31  1  0  0  0
 30 32  2  0  0  0
  4  3  1  0  0  0
  4  5  1  0  0  0
  5  6  1  0  0  0
  6 11  1  0  0  0
 11 12  1  0  0  0
 12 13  1  0  0  0
  6  7  1  0  0  0
  7  8  1  0  0  0
  7  9  1  0  0  0
 24 15  1  0  0  0
 32 26  1  0  0  0
  8  4  1  0  0  0
 24 19  1  0  0  0
  9  4  1  0  0  0
 13 11  1  0  0  0
  6 10  1  0  0  0
M  CHG 1   6   1
M  END
> <minimizedAffinity>
-7.74718

> <CNNscore>
0.6901707053

> <CNNaffinity>
6.4305543900

> <CNN_VS>
4.4381804466

> <CNNaffinity_variance>
0.0538583025

$$$$



 32 37  0  0  0  0  0  0  0  0999 V2000
   -7.5796   -0.8681  -22.5521 O   0  0  0  0  0  0  0  0  0  0  0  0
   -7.0468   -2.2692  -22.4960 C   0  0  0  0  0  0  0  0  0  0  0  0
   -7.5933   -3.3169  -23.4200 N   0  0  0  0  0  0  0  0  0  0  0  0
   -7.0606   -4.7180  -23.3640 C   0  0  0  0  0  0  0  0  0  0  0  0
   -6.0279   -4.8647  -24.4419 C   0  0  0  0  0  0  0  0  0  0  0  0
   -5.4952   -6.2658  -24.3858 N   0  0  0  0  0  0  0  0  0  0  0  0
   -6.3073   -6.6994  -23.2848 C   0  0  0  0  0  0  0  0  0  0  0  0
   -6.0385   -5.4959  -24.1386 C   0  0  0  0  0  0  0  0  0  0  0  0
   -7.3294   -5.9215  -22.5101 C   0  0  0  0  0  0  0  0  0  0  0  0
   -5.1066   -5.6509  -25.1009 H   0  0  0  0  0  0  0  0  0  0  0  0
   -4.4436   -6.8459  -25.2846 C   0  0  0  0  0  0  0  0  0  0  0  0
   -3.6552   -8.0268  -25.7680 C   0  0  0  0  0  0  0  0  0  0  0  0
   -3.4106   -6.6695  -26.3578 C   0  0  0  0  0  0  0  0  0  0  0  0
   -5.9676   -2.6226  -21.5161 C   0  0  0  0  0  0  0  0  0  0  0  0
   -5.6277   -1.6778  -20.4017 C   0  0  0  0  0  0  0  0  0  0  0  0
   -6.1837   -1.9077  -19.0277 C   0  0  0  0  0  0  0  0  0  0  0  0
   -5.8437   -0.9629  -17.9133 N   0  0  0  0  0  0  0  0  0  0  0  0
   -4.9479    0.2118  -18.1730 C   0  0  0  0  0  0  0  0  0  0  0  0
   -4.3919    0.4418  -19.5471 C   0  0  0  0  0  0  0  0  0  0  0  0
   -3.4960    1.6164  -19.8068 C   0  0  0  0  0  0  0  0  0  0  0  0
   -2.9400    1.8463  -21.1808 C   0  0  0  0  0  0  0  0  0  0  0  0
   -3.2799    0.9015  -22.2952 C   0  0  0  0  0  0  0  0  0  0  0  0
   -4.1758   -0.2732  -22.0355 C   0  0  0  0  0  0  0  0  0  0  0  0
   -4.7318   -0.5030  -20.6614 C   0  0  0  0  0  0  0  0  0  0  0  0
   -8.6726   -2.9634  -24.4000 C   0  0  0  0  0  0  0  0  0  0  0  0
   -9.8836   -2.2064  -23.9413 C   0  0  0  0  0  0  0  0  0  0  0  0
   -9.9958   -0.7354  -24.2127 C   0  0  0  0  0  0  0  0  0  0  0  0
  -11.2068    0.0216  -23.7539 C   0  0  0  0  0  0  0  0  0  0  0  0
  -12.3056   -0.6924  -23.0238 C   0  0  0  0  0  0  0  0  0  0  0  0
  -12.1933   -2.1634  -22.7525 C   0  0  0  0  0  0  0  0  0  0  0  0
  -13.2920   -2.8773  -22.0224 Cl  0  0  0  0  0  0  0  0  0  0  0  0
  -10.9823   -2.9204  -23.2112 C   0  0  0  0  0  0  0  0  0  0  0  0
  1  2  2  0  0  0
  2 14  1  0  0  0
 14 15  1  0  0  0
 15 16  2  0  0  0
 16 17  1  0  0  0
 17 18  2  0  0  0
 18 19  1  0  0  0
 19 20  2  0  0  0
 20 21  1  0  0  0
 21 22  2  0  0  0
 22 23  1  0  0  0
 23 24  2  0  0  0
  2  3  1  0  0  0
  3 25  1  0  0  0
 25 26  1  0  0  0
 26 27  2  0  0  0
 27 28  1  0  0  0
 28 29  2  0  0  0
 29 30  1  0  0  0
 30 31  1  0  0  0
 30 32  2  0  0  0
  4  3  1  0  0  0
  4  5  1  0  0  0
  5  6  1  0  0  0
  6 11  1  0  0  0
 11 12  1  0  0  0
 12 13  1  0  0  0
  6  7  1  0  0  0
  7  8  1  0  0  0
  7  9  1  0  0  0
 24 15  1  0  0  0
 32 26  1  0  0  0
  8  4  1  0  0  0
 24 19  1  0  0  0
  9  4  1  0  0  0
 13 11  1  0  0  0
  6 10  1  0  0  0
M  CHG 1   6   1
M  END
> <minimizedAffinity>
-7.60443

> <CNNscore>
0.6850935221

> <CNNaffinity>
6.3879098892

> <CNN_VS>
4.3763155937

> <CNNaffinity_variance>
0.3274564147

$$$$



 32 37  0  0  0  0  0  0  0  0999 V2000
   -5.0544   -4.1811  -20.6171 O   0  0  0  0  0  0  0  0  0  0  0  0
   -6.1380   -3.6681  -21.5187 C   0  0  0  0  0  0  0  0  0  0  0  0
   -6.9005   -4.6201  -22.3918 N   0  0  0  0  0  0  0  0  0  0  0  0
   -7.9840   -4.1072  -23.2934 C   0  0  0  0  0  0  0  0  0  0  0  0
   -8.1909   -5.1120  -24.3877 C   0  0  0  0  0  0  0  0  0  0  0  0
   -9.2745   -4.5991  -25.2892 N   0  0  0  0  0  0  0  0  0  0  0  0
   -9.5164   -3.3819  -24.5684 C   0  0  0  0  0  0  0  0  0  0  0  0
   -8.6551   -4.6094  -24.5374 C   0  0  0  0  0  0  0  0  0  0  0  0
   -8.8454   -2.8796  -23.3245 C   0  0  0  0  0  0  0  0  0  0  0  0
   -8.8584   -5.4986  -25.5305 H   0  0  0  0  0  0  0  0  0  0  0  0
   -9.8025   -5.2873  -26.5130 C   0  0  0  0  0  0  0  0  0  0  0  0
  -10.6723   -6.3361  -27.1401 C   0  0  0  0  0  0  0  0  0  0  0  0
   -9.8473   -5.4303  -28.0055 C   0  0  0  0  0  0  0  0  0  0  0  0
   -6.4591   -2.2032  -21.5471 C   0  0  0  0  0  0  0  0  0  0  0  0
   -5.9865   -1.3101  -20.4385 C   0  0  0  0  0  0  0  0  0  0  0  0
   -6.6180   -1.4012  -19.0811 C   0  0  0  0  0  0  0  0  0  0  0  0
   -6.1454   -0.5082  -17.9724 N   0  0  0  0  0  0  0  0  0  0  0  0
   -5.0412    0.4761  -18.2213 C   0  0  0  0  0  0  0  0  0  0  0  0
   -4.4096    0.5672  -19.5788 C   0  0  0  0  0  0  0  0  0  0  0  0
   -3.3054    1.5515  -19.8277 C   0  0  0  0  0  0  0  0  0  0  0  0
   -2.6738    1.6426  -21.1852 C   0  0  0  0  0  0  0  0  0  0  0  0
   -3.1465    0.7496  -22.2938 C   0  0  0  0  0  0  0  0  0  0  0  0
   -4.2507   -0.2347  -22.0449 C   0  0  0  0  0  0  0  0  0  0  0  0
   -4.8822   -0.3258  -20.6874 C   0  0  0  0  0  0  0  0  0  0  0  0
   -6.5793   -6.0851  -22.3634 C   0  0  0  0  0  0  0  0  0  0  0  0
   -5.4656   -6.6253  -23.2107 C   0  0  0  0  0  0  0  0  0  0  0  0
   -4.0826   -6.7473  -22.6428 C   0  0  0  0  0  0  0  0  0  0  0  0
   -2.9689   -7.2875  -23.4901 C   0  0  0  0  0  0  0  0  0  0  0  0
   -3.2383   -7.7058  -24.9052 C   0  0  0  0  0  0  0  0  0  0  0  0
   -4.6213   -7.5839  -25.4730 C   0  0  0  0  0  0  0  0  0  0  0  0
   -4.8906   -8.0021  -26.8881 Cl  0  0  0  0  0  0  0  0  0  0  0  0
   -5.7349   -7.0436  -24.6257 C   0  0  0  0  0  0  0  0  0  0  0  0
  1  2  2  0  0  0
  2 14  1  0  0  0
 14 15  1  0  0  0
 15 16  2  0  0  0
 16 17  1  0  0  0
 17 18  2  0  0  0
 18 19  1  0  0  0
 19 20  2  0  0  0
 20 21  1  0  0  0
 21 22  2  0  0  0
 22 23  1  0  0  0
 23 24  2  0  0  0
  2  3  1  0  0  0
  3 25  1  0  0  0
 25 26  1  0  0  0
 26 27  2  0  0  0
 27 28  1  0  0  0
 28 29  2  0  0  0
 29 30  1  0  0  0
 30 31  1  0  0  0
 30 32  2  0  0  0
  4  3  1  0  0  0
  4  5  1  0  0  0
  5  6  1  0  0  0
  6 11  1  0  0  0
 11 12  1  0  0  0
 12 13  1  0  0  0
  6  7  1  0  0  0
  7  8  1  0  0  0
  7  9  1  0  0  0
 24 15  1  0  0  0
 32 26  1  0  0  0
  8  4  1  0  0  0
 24 19  1  0  0  0
  9  4  1  0  0  0
 13 11  1  0  0  0
  6 10  1  0  0  0
M  CHG 1   6   1
M  END
> <minimizedAffinity>
-7.55680

> <CNNscore>
0.6198157072

> <CNNaffinity>
6.2482299805

> <CNN_VS>
3.8727509975

> <CNNaffinity_variance>
0.1960745156

$$$$



 32 37  0  0  0  0  0  0  0  0999 V2000
   -8.1246    0.7287  -21.3918 O   0  0  0  0  0  0  0  0  0  0  0  0
   -8.2262   -0.4248  -22.3453 C   0  0  0  0  0  0  0  0  0  0  0  0
   -7.5828   -1.7368  -22.0066 N   0  0  0  0  0  0  0  0  0  0  0  0
   -7.6844   -2.8902  -22.9600 C   0  0  0  0  0  0  0  0  0  0  0  0
   -6.3975   -3.6582  -22.8973 C   0  0  0  0  0  0  0  0  0  0  0  0
   -6.4991   -4.8117  -23.8508 N   0  0  0  0  0  0  0  0  0  0  0  0
   -7.8281   -4.5216  -24.3084 C   0  0  0  0  0  0  0  0  0  0  0  0
   -6.7761   -4.0119  -23.3686 C   0  0  0  0  0  0  0  0  0  0  0  0
   -8.7364   -3.3999  -23.8999 C   0  0  0  0  0  0  0  0  0  0  0  0
   -5.6278   -4.7178  -23.3288 H   0  0  0  0  0  0  0  0  0  0  0  0
   -5.4373   -5.8398  -24.1072 C   0  0  0  0  0  0  0  0  0  0  0  0
   -4.7696   -7.1346  -23.7500 C   0  0  0  0  0  0  0  0  0  0  0  0
   -4.2662   -6.3257  -24.9086 C   0  0  0  0  0  0  0  0  0  0  0  0
   -8.9712   -0.2663  -23.6375 C   0  0  0  0  0  0  0  0  0  0  0  0
  -10.3337    0.3612  -23.6456 C   0  0  0  0  0  0  0  0  0  0  0  0
  -10.4931    1.8030  -24.0271 C   0  0  0  0  0  0  0  0  0  0  0  0
  -11.8555    2.4305  -24.0353 N   0  0  0  0  0  0  0  0  0  0  0  0
  -13.0585    1.6160  -23.6619 C   0  0  0  0  0  0  0  0  0  0  0  0
  -12.8992    0.1741  -23.2804 C   0  0  0  0  0  0  0  0  0  0  0  0
  -14.1022   -0.6403  -22.9071 C   0  0  0  0  0  0  0  0  0  0  0  0
  -13.9428   -2.0822  -22.5256 C   0  0  0  0  0  0  0  0  0  0  0  0
  -12.5803   -2.7096  -22.5174 C   0  0  0  0  0  0  0  0  0  0  0  0
  -11.3773   -1.8952  -22.8908 C   0  0  0  0  0  0  0  0  0  0  0  0
  -11.5367   -0.4533  -23.2723 C   0  0  0  0  0  0  0  0  0  0  0  0
   -6.8378   -1.8952  -20.7143 C   0  0  0  0  0  0  0  0  0  0  0  0
   -5.7778   -0.9045  -20.3334 C   0  0  0  0  0  0  0  0  0  0  0  0
   -5.7041   -0.3887  -18.9267 C   0  0  0  0  0  0  0  0  0  0  0  0
   -4.6441    0.6019  -18.5458 C   0  0  0  0  0  0  0  0  0  0  0  0
   -3.6579    1.0768  -19.5715 C   0  0  0  0  0  0  0  0  0  0  0  0
   -3.7317    0.5609  -20.9781 C   0  0  0  0  0  0  0  0  0  0  0  0
   -2.7455    1.0358  -22.0037 Cl  0  0  0  0  0  0  0  0  0  0  0  0
   -4.7916   -0.4297  -21.3590 C   0  0  0  0  0  0  0  0  0  0  0  0
  1  2  2  0  0  0
  2 14  1  0  0  0
 14 15  1  0  0  0
 15 16  2  0  0  0
 16 17  1  0  0  0
 17 18  2  0  0  0
 18 19  1  0  0  0
 19 20  2  0  0  0
 20 21  1  0  0  0
 21 22  2  0  0  0
 22 23  1  0  0  0
 23 24  2  0  0  0
  2  3  1  0  0  0
  3 25  1  0  0  0
 25 26  1  0  0  0
 26 27  2  0  0  0
 27 28  1  0  0  0
 28 29  2  0  0  0
 29 30  1  0  0  0
 30 31  1  0  0  0
 30 32  2  0  0  0
  4  3  1  0  0  0
  4  5  1  0  0  0
  5  6  1  0  0  0
  6 11  1  0  0  0
 11 12  1  0  0  0
 12 13  1  0  0  0
  6  7  1  0  0  0
  7  8  1  0  0  0
  7  9  1  0  0  0
 24 15  1  0  0  0
 32 26  1  0  0  0
  8  4  1  0  0  0
 24 19  1  0  0  0
  9  4  1  0  0  0
 13 11  1  0  0  0
  6 10  1  0  0  0
M  CHG 1   6   1
M  END
> <minimizedAffinity>
-7.46248

> <CNNscore>
0.5082740188

> <CNNaffinity>
6.2589139938

> <CNN_VS>
3.1812434196

> <CNNaffinity_variance>
0.0811179802

$$$$



 32 37  0  0  0  0  0  0  0  0999 V2000
   -8.8705    0.4103  -21.4322 O   0  0  0  0  0  0  0  0  0  0  0  0
   -8.4023   -0.9278  -21.9227 C   0  0  0  0  0  0  0  0  0  0  0  0
   -9.2677   -1.7328  -22.8463 N   0  0  0  0  0  0  0  0  0  0  0  0
   -8.7995   -3.0707  -23.3368 C   0  0  0  0  0  0  0  0  0  0  0  0
   -9.5268   -3.3773  -24.6123 C   0  0  0  0  0  0  0  0  0  0  0  0
   -9.0587   -4.7153  -25.1028 N   0  0  0  0  0  0  0  0  0  0  0  0
   -8.1375   -4.9630  -24.0305 C   0  0  0  0  0  0  0  0  0  0  0  0
   -9.1168   -3.9374  -24.5193 C   0  0  0  0  0  0  0  0  0  0  0  0
   -7.8202   -4.0964  -22.8480 C   0  0  0  0  0  0  0  0  0  0  0  0
   -9.7587   -4.2341  -25.6674 H   0  0  0  0  0  0  0  0  0  0  0  0
   -9.5253   -5.4108  -26.3472 C   0  0  0  0  0  0  0  0  0  0  0  0
  -10.5946   -6.1422  -27.1034 C   0  0  0  0  0  0  0  0  0  0  0  0
   -9.2642   -5.8841  -27.7464 C   0  0  0  0  0  0  0  0  0  0  0  0
   -7.0688   -1.4607  -21.4895 C   0  0  0  0  0  0  0  0  0  0  0  0
   -6.3316   -0.8075  -20.3582 C   0  0  0  0  0  0  0  0  0  0  0  0
   -6.8346   -0.9520  -18.9525 C   0  0  0  0  0  0  0  0  0  0  0  0
   -6.0973   -0.2988  -17.8213 N   0  0  0  0  0  0  0  0  0  0  0  0
   -4.8571    0.4989  -18.0957 C   0  0  0  0  0  0  0  0  0  0  0  0
   -4.3539    0.6434  -19.5014 C   0  0  0  0  0  0  0  0  0  0  0  0
   -3.1137    1.4410  -19.7759 C   0  0  0  0  0  0  0  0  0  0  0  0
   -2.6106    1.5855  -21.1815 C   0  0  0  0  0  0  0  0  0  0  0  0
   -3.3479    0.9323  -22.3128 C   0  0  0  0  0  0  0  0  0  0  0  0
   -4.5882    0.1346  -22.0384 C   0  0  0  0  0  0  0  0  0  0  0  0
   -5.0912   -0.0098  -20.6327 C   0  0  0  0  0  0  0  0  0  0  0  0
  -10.6012   -1.1997  -23.2795 C   0  0  0  0  0  0  0  0  0  0  0  0
  -10.7439    0.2440  -23.6608 C   0  0  0  0  0  0  0  0  0  0  0  0
   -9.6993    0.9013  -24.5134 C   0  0  0  0  0  0  0  0  0  0  0  0
   -9.8419    2.3449  -24.8947 C   0  0  0  0  0  0  0  0  0  0  0  0
  -11.0293    3.1313  -24.4236 C   0  0  0  0  0  0  0  0  0  0  0  0
  -12.0738    2.4740  -23.5711 C   0  0  0  0  0  0  0  0  0  0  0  0
  -13.2611    3.2604  -23.1000 Cl  0  0  0  0  0  0  0  0  0  0  0  0
  -11.9312    1.0303  -23.1897 C   0  0  0  0  0  0  0  0  0  0  0  0
  1  2  2  0  0  0
  2 14  1  0  0  0
 14 15  1  0  0  0
 15 16  2  0  0  0
 16 17  1  0  0  0
 17 18  2  0  0  0
 18 19  1  0  0  0
 19 20  2  0  0  0
 20 21  1  0  0  0
 21 22  2  0  0  0
 22 23  1  0  0  0
 23 24  2  0  0  0
  2  3  1  0  0  0
  3 25  1  0  0  0
 25 26  1  0  0  0
 26 27  2  0  0  0
 27 28  1  0  0  0
 28 29  2  0  0  0
 29 30  1  0  0  0
 30 31  1  0  0  0
 30 32  2  0  0  0
  4  3  1  0  0  0
  4  5  1  0  0  0
  5  6  1  0  0  0
  6 11  1  0  0  0
 11 12  1  0  0  0
 12 13  1  0  0  0
  6  7  1  0  0  0
  7  8  1  0  0  0
  7  9  1  0  0  0
 24 15  1  0  0  0
 32 26  1  0  0  0
  8  4  1  0  0  0
 24 19  1  0  0  0
  9  4  1  0  0  0
 13 11  1  0  0  0
  6 10  1  0  0  0
M  CHG 1   6   1
M  END
> <minimizedAffinity>
-8.20708

> <CNNscore>
0.5016542673

> <CNNaffinity>
6.2058458328

> <CNN_VS>
3.1131889820

> <CNNaffinity_variance>
0.2635427117

$$$$



 32 37  0  0  0  0  0  0  0  0999 V2000
   -8.3788   -0.0210  -21.1447 O   0  0  0  0  0  0  0  0  0  0  0  0
   -8.2318   -0.7768  -22.4321 C   0  0  0  0  0  0  0  0  0  0  0  0
   -7.2622   -1.9175  -22.5256 N   0  0  0  0  0  0  0  0  0  0  0  0
   -7.1152   -2.6733  -23.8129 C   0  0  0  0  0  0  0  0  0  0  0  0
   -8.1673   -3.7419  -23.8458 C   0  0  0  0  0  0  0  0  0  0  0  0
   -8.0203   -4.4977  -25.1331 N   0  0  0  0  0  0  0  0  0  0  0  0
   -6.9074   -3.7421  -25.6334 C   0  0  0  0  0  0  0  0  0  0  0  0
   -7.8273   -3.8286  -24.4519 C   0  0  0  0  0  0  0  0  0  0  0  0
   -6.1953   -2.5868  -24.9945 C   0  0  0  0  0  0  0  0  0  0  0  0
   -8.7649   -4.7964  -24.5032 H   0  0  0  0  0  0  0  0  0  0  0  0
   -8.8675   -5.6523  -25.5793 C   0  0  0  0  0  0  0  0  0  0  0  0
  -10.1120   -6.1735  -26.2348 C   0  0  0  0  0  0  0  0  0  0  0  0
   -9.0904   -7.1310  -25.6966 C   0  0  0  0  0  0  0  0  0  0  0  0
   -9.0545   -0.3920  -23.6258 C   0  0  0  0  0  0  0  0  0  0  0  0
  -10.5467   -0.2948  -23.5086 C   0  0  0  0  0  0  0  0  0  0  0  0
  -11.3567   -1.5206  -23.2067 C   0  0  0  0  0  0  0  0  0  0  0  0
  -12.8490   -1.4234  -23.0894 N   0  0  0  0  0  0  0  0  0  0  0  0
  -13.5312   -0.1004  -23.2740 C   0  0  0  0  0  0  0  0  0  0  0  0
  -12.7212    1.1255  -23.5759 C   0  0  0  0  0  0  0  0  0  0  0  0
  -13.4034    2.4485  -23.7606 C   0  0  0  0  0  0  0  0  0  0  0  0
  -12.5934    3.6744  -24.0624 C   0  0  0  0  0  0  0  0  0  0  0  0
  -11.1012    3.5772  -24.1797 C   0  0  0  0  0  0  0  0  0  0  0  0
  -10.4189    2.2542  -23.9951 C   0  0  0  0  0  0  0  0  0  0  0  0
  -11.2290    1.0283  -23.6932 C   0  0  0  0  0  0  0  0  0  0  0  0
   -6.4396   -2.3024  -21.3318 C   0  0  0  0  0  0  0  0  0  0  0  0
   -5.6508   -1.2595  -20.5968 C   0  0  0  0  0  0  0  0  0  0  0  0
   -5.8515   -1.0679  -19.1226 C   0  0  0  0  0  0  0  0  0  0  0  0
   -5.0628   -0.0250  -18.3876 C   0  0  0  0  0  0  0  0  0  0  0  0
   -4.0733    0.8263  -19.1267 C   0  0  0  0  0  0  0  0  0  0  0  0
   -3.8726    0.6347  -20.6008 C   0  0  0  0  0  0  0  0  0  0  0  0
   -2.8831    1.4859  -21.3399 Cl  0  0  0  0  0  0  0  0  0  0  0  0
   -4.6613   -0.4082  -21.3358 C   0  0  0  0  0  0  0  0  0  0  0  0
  1  2  2  0  0  0
  2 14  1  0  0  0
 14 15  1  0  0  0
 15 16  2  0  0  0
 16 17  1  0  0  0
 17 18  2  0  0  0
 18 19  1  0  0  0
 19 20  2  0  0  0
 20 21  1  0  0  0
 21 22  2  0  0  0
 22 23  1  0  0  0
 23 24  2  0  0  0
  2  3  1  0  0  0
  3 25  1  0  0  0
 25 26  1  0  0  0
 26 27  2  0  0  0
 27 28  1  0  0  0
 28 29  2  0  0  0
 29 30  1  0  0  0
 30 31  1  0  0  0
 30 32  2  0  0  0
  4  3  1  0  0  0
  4  5  1  0  0  0
  5  6  1  0  0  0
  6 11  1  0  0  0
 11 12  1  0  0  0
 12 13  1  0  0  0
  6  7  1  0  0  0
  7  8  1  0  0  0
  7  9  1  0  0  0
 24 15  1  0  0  0
 32 26  1  0  0  0
  8  4  1  0  0  0
 24 19  1  0  0  0
  9  4  1  0  0  0
 13 11  1  0  0  0
  6 10  1  0  0  0
M  CHG 1   6   1
M  END
> <minimizedAffinity>
-7.95568

> <CNNscore>
0.4773967266

> <CNNaffinity>
6.1970777512

> <CNN_VS>
2.9584646225

> <CNNaffinity_variance>
0.2431010008

$$$$



 32 37  0  0  0  0  0  0  0  0999 V2000
   -8.8871    0.6755  -21.4509 O   0  0  0  0  0  0  0  0  0  0  0  0
   -8.2711   -0.4260  -22.2618 C   0  0  0  0  0  0  0  0  0  0  0  0
   -9.0588   -1.0814  -23.3572 N   0  0  0  0  0  0  0  0  0  0  0  0
   -8.4428   -2.1828  -24.1681 C   0  0  0  0  0  0  0  0  0  0  0  0
   -8.2928   -3.3832  -23.2812 C   0  0  0  0  0  0  0  0  0  0  0  0
   -7.6769   -4.4846  -24.0921 N   0  0  0  0  0  0  0  0  0  0  0  0
   -7.5718   -3.7405  -25.3148 C   0  0  0  0  0  0  0  0  0  0  0  0
   -8.0373   -3.6011  -23.8958 C   0  0  0  0  0  0  0  0  0  0  0  0
   -7.9773   -2.3222  -25.5872 C   0  0  0  0  0  0  0  0  0  0  0  0
   -7.8927   -4.6925  -23.1171 H   0  0  0  0  0  0  0  0  0  0  0  0
   -7.3492   -5.8636  -23.6011 C   0  0  0  0  0  0  0  0  0  0  0  0
   -6.3648   -6.8372  -23.0242 C   0  0  0  0  0  0  0  0  0  0  0  0
   -7.7660   -7.2783  -23.3277 C   0  0  0  0  0  0  0  0  0  0  0  0
   -6.8675   -0.8719  -21.9773 C   0  0  0  0  0  0  0  0  0  0  0  0
   -6.1915   -0.4551  -20.7047 C   0  0  0  0  0  0  0  0  0  0  0  0
   -6.7665   -0.8646  -19.3812 C   0  0  0  0  0  0  0  0  0  0  0  0
   -6.0905   -0.4478  -18.1086 N   0  0  0  0  0  0  0  0  0  0  0  0
   -4.8396    0.3784  -18.1596 C   0  0  0  0  0  0  0  0  0  0  0  0
   -4.2646    0.7879  -19.4831 C   0  0  0  0  0  0  0  0  0  0  0  0
   -3.0137    1.6141  -19.5341 C   0  0  0  0  0  0  0  0  0  0  0  0
   -2.4388    2.0235  -20.8576 C   0  0  0  0  0  0  0  0  0  0  0  0
   -3.1147    1.6068  -22.1302 C   0  0  0  0  0  0  0  0  0  0  0  0
   -4.3656    0.7806  -22.0792 C   0  0  0  0  0  0  0  0  0  0  0  0
   -4.9406    0.3711  -20.7557 C   0  0  0  0  0  0  0  0  0  0  0  0
  -10.4624   -0.6355  -23.6417 C   0  0  0  0  0  0  0  0  0  0  0  0
  -10.7703    0.8254  -23.7872 C   0  0  0  0  0  0  0  0  0  0  0  0
   -9.9450    1.6780  -24.7049 C   0  0  0  0  0  0  0  0  0  0  0  0
  -10.2529    3.1388  -24.8504 C   0  0  0  0  0  0  0  0  0  0  0  0
  -11.3860    3.7471  -24.0782 C   0  0  0  0  0  0  0  0  0  0  0  0
  -12.2112    2.8944  -23.1606 C   0  0  0  0  0  0  0  0  0  0  0  0
  -13.3442    3.5027  -22.3884 Cl  0  0  0  0  0  0  0  0  0  0  0  0
  -11.9033    1.4336  -23.0151 C   0  0  0  0  0  0  0  0  0  0  0  0
  1  2  2  0  0  0
  2 14  1  0  0  0
 14 15  1  0  0  0
 15 16  2  0  0  0
 16 17  1  0  0  0
 17 18  2  0  0  0
 18 19  1  0  0  0
 19 20  2  0  0  0
 20 21  1  0  0  0
 21 22  2  0  0  0
 22 23  1  0  0  0
 23 24  2  0  0  0
  2  3  1  0  0  0
  3 25  1  0  0  0
 25 26  1  0  0  0
 26 27  2  0  0  0
 27 28  1  0  0  0
 28 29  2  0  0  0
 29 30  1  0  0  0
 30 31  1  0  0  0
 30 32  2  0  0  0
  4  3  1  0  0  0
  4  5  1  0  0  0
  5  6  1  0  0  0
  6 11  1  0  0  0
 11 12  1  0  0  0
 12 13  1  0  0  0
  6  7  1  0  0  0
  7  8  1  0  0  0
  7  9  1  0  0  0
 24 15  1  0  0  0
 32 26  1  0  0  0
  8  4  1  0  0  0
 24 19  1  0  0  0
  9  4  1  0  0  0
 13 11  1  0  0  0
  6 10  1  0  0  0
M  CHG 1   6   1
M  END
> <minimizedAffinity>
-7.82769

> <CNNscore>
0.4311951697

> <CNNaffinity>
6.0394048691

> <CNN_VS>
2.6041622162

> <CNNaffinity_variance>
0.4414536357

$$$$



 32 37  0  0  0  0  0  0  0  0999 V2000
   -5.3260   -4.0933  -21.0686 O   0  0  0  0  0  0  0  0  0  0  0  0
   -6.3886   -3.3982  -21.8672 C   0  0  0  0  0  0  0  0  0  0  0  0
   -7.3432   -4.1988  -22.7025 N   0  0  0  0  0  0  0  0  0  0  0  0
   -8.4058   -3.5038  -23.5011 C   0  0  0  0  0  0  0  0  0  0  0  0
   -9.6027   -3.3168  -22.6166 C   0  0  0  0  0  0  0  0  0  0  0  0
  -10.6653   -2.6218  -23.4152 N   0  0  0  0  0  0  0  0  0  0  0  0
   -9.9085   -2.5208  -24.6305 C   0  0  0  0  0  0  0  0  0  0  0  0
   -9.8030   -3.0330  -23.2247 C   0  0  0  0  0  0  0  0  0  0  0  0
   -8.5114   -2.9916  -24.9070 C   0  0  0  0  0  0  0  0  0  0  0  0
  -10.8906   -2.8541  -22.4479 H   0  0  0  0  0  0  0  0  0  0  0  0
  -12.0287   -2.2370  -22.9223 C   0  0  0  0  0  0  0  0  0  0  0  0
  -13.1683   -1.2624  -22.8821 C   0  0  0  0  0  0  0  0  0  0  0  0
  -13.2507   -2.5450  -22.1087 C   0  0  0  0  0  0  0  0  0  0  0  0
   -6.4965   -1.9026  -21.8306 C   0  0  0  0  0  0  0  0  0  0  0  0
   -6.0393   -1.1471  -20.6180 C   0  0  0  0  0  0  0  0  0  0  0  0
   -6.7489   -1.3293  -19.3091 C   0  0  0  0  0  0  0  0  0  0  0  0
   -6.2918   -0.5739  -18.0966 N   0  0  0  0  0  0  0  0  0  0  0  0
   -5.1250    0.3638  -18.1929 C   0  0  0  0  0  0  0  0  0  0  0  0
   -4.4153    0.5461  -19.5018 C   0  0  0  0  0  0  0  0  0  0  0  0
   -3.2485    1.4838  -19.5981 C   0  0  0  0  0  0  0  0  0  0  0  0
   -2.5389    1.6660  -20.9070 C   0  0  0  0  0  0  0  0  0  0  0  0
   -2.9961    0.9105  -22.1196 C   0  0  0  0  0  0  0  0  0  0  0  0
   -4.1629   -0.0272  -22.0232 C   0  0  0  0  0  0  0  0  0  0  0  0
   -4.8725   -0.2094  -20.7144 C   0  0  0  0  0  0  0  0  0  0  0  0
   -7.2353   -5.6945  -22.7391 C   0  0  0  0  0  0  0  0  0  0  0  0
   -6.4782   -6.3649  -23.8469 C   0  0  0  0  0  0  0  0  0  0  0  0
   -5.2488   -7.1666  -23.5371 C   0  0  0  0  0  0  0  0  0  0  0  0
   -4.4916   -7.8370  -24.6449 C   0  0  0  0  0  0  0  0  0  0  0  0
   -4.9639   -7.7057  -26.0626 C   0  0  0  0  0  0  0  0  0  0  0  0
   -6.1932   -6.9040  -26.3724 C   0  0  0  0  0  0  0  0  0  0  0  0
   -6.6654   -6.7727  -27.7901 Cl  0  0  0  0  0  0  0  0  0  0  0  0
   -6.9504   -6.2336  -25.2646 C   0  0  0  0  0  0  0  0  0  0  0  0
  1  2  2  0  0  0
  2 14  1  0  0  0
 14 15  1  0  0  0
 15 16  2  0  0  0
 16 17  1  0  0  0
 17 18  2  0  0  0
 18 19  1  0  0  0
 19 20  2  0  0  0
 20 21  1  0  0  0
 21 22  2  0  0  0
 22 23  1  0  0  0
 23 24  2  0  0  0
  2  3  1  0  0  0
  3 25  1  0  0  0
 25 26  1  0  0  0
 26 27  2  0  0  0
 27 28  1  0  0  0
 28 29  2  0  0  0
 29 30  1  0  0  0
 30 31  1  0  0  0
 30 32  2  0  0  0
  4  3  1  0  0  0
  4  5  1  0  0  0
  5  6  1  0  0  0
  6 11  1  0  0  0
 11 12  1  0  0  0
 12 13  1  0  0  0
  6  7  1  0  0  0
  7  8  1  0  0  0
  7  9  1  0  0  0
 24 15  1  0  0  0
 32 26  1  0  0  0
  8  4  1  0  0  0
 24 19  1  0  0  0
  9  4  1  0  0  0
 13 11  1  0  0  0
  6 10  1  0  0  0
M  CHG 1   6   1
M  END
> <minimizedAffinity>
-8.38586

> <CNNscore>
0.3864474893

> <CNNaffinity>
6.1725101471

> <CNN_VS>
2.3853509426

> <CNNaffinity_variance>
0.4555775225

$$$$
