


 35 40  0  0  0  0  0  0  0  0999 V2000
    7.4838   -3.3096   23.4958 C   0  0  0  0  0  0  0  0  0  0  0  0
    7.6932   -2.0427   22.7205 C   0  0  0  0  0  0  0  0  0  0  0  0
    6.5813   -1.7902   21.7458 C   0  0  0  0  0  0  0  0  0  0  0  0
    6.8797   -0.5096   21.0239 N   0  0  0  0  0  0  0  0  0  0  0  0
    8.1759    0.0293   21.5525 C   0  0  0  0  0  0  0  0  0  0  0  0
    8.8508    1.2937   21.1101 O   0  0  0  0  0  0  0  0  0  0  0  0
    8.6787   -0.9182   22.6010 C   0  0  0  0  0  0  0  0  0  0  0  0
    9.5700    0.2661   22.3710 C   0  0  0  0  0  0  0  0  0  0  0  0
   10.8360    0.4167   23.1614 N   0  0  0  0  0  0  0  0  0  0  0  0
   11.2106   -0.6169   24.1817 C   0  0  0  0  0  0  0  0  0  0  0  0
   12.4766   -0.4663   24.9720 O   0  0  0  0  0  0  0  0  0  0  0  0
   10.3192   -1.8013   24.4118 C   0  0  0  0  0  0  0  0  0  0  0  0
   10.6939   -2.8350   25.4321 C   0  0  0  0  0  0  0  0  0  0  0  0
    9.8025   -4.0192   25.6622 C   0  0  0  0  0  0  0  0  0  0  0  0
    8.5365   -4.1698   24.8718 C   0  0  0  0  0  0  0  0  0  0  0  0
    7.6452   -5.3542   25.1019 F   0  0  0  0  0  0  0  0  0  0  0  0
    8.1619   -3.1362   23.8515 C   0  0  0  0  0  0  0  0  0  0  0  0
    9.0533   -1.9519   23.6215 C   0  0  0  0  0  0  0  0  0  0  0  0
    6.0309    0.1212   19.9601 C   0  0  0  0  0  0  0  0  0  0  0  0
    6.4409    0.0285   18.5203 C   0  0  0  0  0  0  0  0  0  0  0  0
    5.5921    0.6593   17.4566 N   0  0  0  0  0  0  0  0  0  0  0  0
    4.3332    1.3830   17.8328 C   0  0  0  0  0  0  0  0  0  0  0  0
    3.9232    1.4757   19.2727 C   0  0  0  0  0  0  0  0  0  0  0  0
    2.6642    2.1994   19.6488 C   0  0  0  0  0  0  0  0  0  0  0  0
    2.2542    2.2921   21.0887 C   0  0  0  0  0  0  0  0  0  0  0  0
    3.1030    1.6613   22.1524 C   0  0  0  0  0  0  0  0  0  0  0  0
    4.3619    0.9376   21.7762 C   0  0  0  0  0  0  0  0  0  0  0  0
    4.7720    0.8449   20.3364 C   0  0  0  0  0  0  0  0  0  0  0  0
   11.7274    1.6011   22.9313 C   0  0  0  0  0  0  0  0  0  0  0  0
   11.1562    2.9876   22.9661 C   0  0  0  0  0  0  0  0  0  0  0  0
   11.9309    4.2641   22.8232 C   0  0  0  0  0  0  0  0  0  0  0  0
   10.9636    5.4065   22.9187 C   0  0  0  0  0  0  0  0  0  0  0  0
    9.5911    4.8361   23.1208 N   0  0  0  0  0  0  0  0  0  0  0  0
    9.7101    3.3411   23.1500 N   0  0  0  0  0  0  0  0  0  0  0  0
    8.7583    5.3523   23.2172 H   0  0  0  0  0  0  0  0  0  0  0  0
  2  1  1  0  0  0
  2  3  1  0  0  0
  3  4  1  0  0  0
  4 19  1  0  0  0
 19 20  2  0  0  0
 20 21  1  0  0  0
 21 22  2  0  0  0
 22 23  1  0  0  0
 23 24  2  0  0  0
 24 25  1  0  0  0
 25 26  2  0  0  0
 26 27  1  0  0  0
 27 28  2  0  0  0
  4  5  1  0  0  0
  5  6  2  0  0  0
  5  7  1  0  0  0
  7  8  1  0  0  0
  8  9  1  0  0  0
  9 29  1  0  0  0
 29 30  1  0  0  0
 30 31  1  0  0  0
 31 32  2  0  0  0
 32 33  1  0  0  0
 33 34  1  0  0  0
  9 10  1  0  0  0
 10 11  2  0  0  0
 10 12  1  0  0  0
 12 13  2  0  0  0
 13 14  1  0  0  0
 14 15  2  0  0  0
 15 16  1  0  0  0
 15 17  1  0  0  0
 17 18  2  0  0  0
  7  2  1  0  0  0
 34 30  2  0  0  0
 18 12  1  0  0  0
 28 19  1  0  0  0
 18  7  1  0  0  0
 28 23  1  0  0  0
 33 35  1  0  0  0
M  END
> <minimizedAffinity>
-10.11022

> <CNNscore>
0.7018765807

> <CNNaffinity>
6.8473296165

> <CNN_VS>
4.8059802055

> <CNNaffinity_variance>
0.0686597899

$$$$



 35 40  0  0  0  0  0  0  0  0999 V2000
    5.2747   -4.4995   22.4675 C   0  0  0  0  0  0  0  0  0  0  0  0
    5.8983   -3.2016   22.0472 C   0  0  0  0  0  0  0  0  0  0  0  0
    5.0599   -2.4769   21.0363 C   0  0  0  0  0  0  0  0  0  0  0  0
    5.7625   -1.2000   20.6812 N   0  0  0  0  0  0  0  0  0  0  0  0
    7.0351   -1.1357   21.4726 C   0  0  0  0  0  0  0  0  0  0  0  0
    8.0462   -0.0287   21.4277 O   0  0  0  0  0  0  0  0  0  0  0  0
    7.1190   -2.3727   22.3168 C   0  0  0  0  0  0  0  0  0  0  0  0
    8.2824   -1.4406   22.4831 C   0  0  0  0  0  0  0  0  0  0  0  0
    9.3922   -1.7878   23.4306 N   0  0  0  0  0  0  0  0  0  0  0  0
    9.3386   -3.0671   24.2119 C   0  0  0  0  0  0  0  0  0  0  0  0
   10.4484   -3.4143   25.1594 O   0  0  0  0  0  0  0  0  0  0  0  0
    8.1752   -3.9993   24.0457 C   0  0  0  0  0  0  0  0  0  0  0  0
    8.1217   -5.2786   24.8269 C   0  0  0  0  0  0  0  0  0  0  0  0
    6.9583   -6.2108   24.6607 C   0  0  0  0  0  0  0  0  0  0  0  0
    5.8485   -5.8636   23.7132 C   0  0  0  0  0  0  0  0  0  0  0  0
    4.6851   -6.7958   23.5469 F   0  0  0  0  0  0  0  0  0  0  0  0
    5.9021   -4.5842   22.9319 C   0  0  0  0  0  0  0  0  0  0  0  0
    7.0654   -3.6521   23.0981 C   0  0  0  0  0  0  0  0  0  0  0  0
    5.2776   -0.1687   19.7059 C   0  0  0  0  0  0  0  0  0  0  0  0
    5.7226   -0.2223   18.2745 C   0  0  0  0  0  0  0  0  0  0  0  0
    5.2378    0.8091   17.2993 N   0  0  0  0  0  0  0  0  0  0  0  0
    4.3080    1.8941   17.7555 C   0  0  0  0  0  0  0  0  0  0  0  0
    3.8630    1.9477   19.1870 C   0  0  0  0  0  0  0  0  0  0  0  0
    2.9331    3.0328   19.6432 C   0  0  0  0  0  0  0  0  0  0  0  0
    2.4881    3.0864   21.0747 C   0  0  0  0  0  0  0  0  0  0  0  0
    2.9730    2.0550   22.0498 C   0  0  0  0  0  0  0  0  0  0  0  0
    3.9028    0.9700   21.5936 C   0  0  0  0  0  0  0  0  0  0  0  0
    4.3478    0.9163   20.1622 C   0  0  0  0  0  0  0  0  0  0  0  0
   10.5556   -0.8556   23.5968 C   0  0  0  0  0  0  0  0  0  0  0  0
   11.8185   -1.3404   24.2448 C   0  0  0  0  0  0  0  0  0  0  0  0
   12.1634   -1.2251   25.7000 C   0  0  0  0  0  0  0  0  0  0  0  0
   13.5163   -1.8391   25.9058 C   0  0  0  0  0  0  0  0  0  0  0  0
   14.0077   -2.3340   24.5778 N   0  0  0  0  0  0  0  0  0  0  0  0
   12.9584   -2.0258   23.5512 N   0  0  0  0  0  0  0  0  0  0  0  0
   14.8679   -2.7824   24.4095 H   0  0  0  0  0  0  0  0  0  0  0  0
  2  1  1  0  0  0
  2  3  1  0  0  0
  3  4  1  0  0  0
  4 19  1  0  0  0
 19 20  2  0  0  0
 20 21  1  0  0  0
 21 22  2  0  0  0
 22 23  1  0  0  0
 23 24  2  0  0  0
 24 25  1  0  0  0
 25 26  2  0  0  0
 26 27  1  0  0  0
 27 28  2  0  0  0
  4  5  1  0  0  0
  5  6  2  0  0  0
  5  7  1  0  0  0
  7  8  1  0  0  0
  8  9  1  0  0  0
  9 29  1  0  0  0
 29 30  1  0  0  0
 30 31  1  0  0  0
 31 32  2  0  0  0
 32 33  1  0  0  0
 33 34  1  0  0  0
  9 10  1  0  0  0
 10 11  2  0  0  0
 10 12  1  0  0  0
 12 13  2  0  0  0
 13 14  1  0  0  0
 14 15  2  0  0  0
 15 16  1  0  0  0
 15 17  1  0  0  0
 17 18  2  0  0  0
  7  2  1  0  0  0
 34 30  2  0  0  0
 18 12  1  0  0  0
 28 19  1  0  0  0
 18  7  1  0  0  0
 28 23  1  0  0  0
 33 35  1  0  0  0
M  END
> <minimizedAffinity>
-8.30413

> <CNNscore>
0.4890383482

> <CNNaffinity>
6.5694375038

> <CNN_VS>
3.2127068043

> <CNNaffinity_variance>
0.0683662146

$$$$



 35 40  0  0  0  0  0  0  0  0999 V2000
   10.9723   -3.3723   26.1349 C   0  0  0  0  0  0  0  0  0  0  0  0
    9.5889   -2.8777   25.8318 C   0  0  0  0  0  0  0  0  0  0  0  0
    8.5330   -3.7759   26.4049 C   0  0  0  0  0  0  0  0  0  0  0  0
    7.1935   -3.2010   26.0509 N   0  0  0  0  0  0  0  0  0  0  0  0
    7.4216   -1.9476   25.2591 C   0  0  0  0  0  0  0  0  0  0  0  0
    6.3563   -1.0513   24.7008 O   0  0  0  0  0  0  0  0  0  0  0  0
    8.9021   -1.7478   25.1237 C   0  0  0  0  0  0  0  0  0  0  0  0
    8.0796   -0.6844   24.4584 C   0  0  0  0  0  0  0  0  0  0  0  0
    8.7547    0.4468   23.7409 N   0  0  0  0  0  0  0  0  0  0  0  0
   10.2522    0.5145   23.6887 C   0  0  0  0  0  0  0  0  0  0  0  0
   10.9273    1.6456   22.9712 O   0  0  0  0  0  0  0  0  0  0  0  0
   11.0748   -0.5489   24.3540 C   0  0  0  0  0  0  0  0  0  0  0  0
   12.5723   -0.4812   24.3018 C   0  0  0  0  0  0  0  0  0  0  0  0
   13.3948   -1.5446   24.9671 C   0  0  0  0  0  0  0  0  0  0  0  0
   12.7197   -2.6757   25.6846 C   0  0  0  0  0  0  0  0  0  0  0  0
   13.5423   -3.7392   26.3499 F   0  0  0  0  0  0  0  0  0  0  0  0
   11.2222   -2.7435   25.7368 C   0  0  0  0  0  0  0  0  0  0  0  0
   10.3997   -1.6801   25.0715 C   0  0  0  0  0  0  0  0  0  0  0  0
    5.8601   -3.7782   26.4233 C   0  0  0  0  0  0  0  0  0  0  0  0
    5.0737   -4.5615   25.4144 C   0  0  0  0  0  0  0  0  0  0  0  0
    3.7402   -5.1386   25.7869 N   0  0  0  0  0  0  0  0  0  0  0  0
    3.1932   -4.9325   27.1682 C   0  0  0  0  0  0  0  0  0  0  0  0
    3.9796   -4.1491   28.1772 C   0  0  0  0  0  0  0  0  0  0  0  0
    3.4325   -3.9430   29.5586 C   0  0  0  0  0  0  0  0  0  0  0  0
    4.2190   -3.1596   30.5675 C   0  0  0  0  0  0  0  0  0  0  0  0
    5.5524   -2.5825   30.1950 C   0  0  0  0  0  0  0  0  0  0  0  0
    6.0994   -2.7887   28.8136 C   0  0  0  0  0  0  0  0  0  0  0  0
    5.3131   -3.5720   27.8048 C   0  0  0  0  0  0  0  0  0  0  0  0
    7.9321    1.5102   23.0756 C   0  0  0  0  0  0  0  0  0  0  0  0
    7.6325    2.7893   23.7995 C   0  0  0  0  0  0  0  0  0  0  0  0
    6.7428    2.9364   24.9982 C   0  0  0  0  0  0  0  0  0  0  0  0
    6.7304    4.3839   25.3914 C   0  0  0  0  0  0  0  0  0  0  0  0
    7.6125    5.1314   24.4358 N   0  0  0  0  0  0  0  0  0  0  0  0
    8.1700    4.1459   23.4520 N   0  0  0  0  0  0  0  0  0  0  0  0
    7.7937    6.0990   24.4515 H   0  0  0  0  0  0  0  0  0  0  0  0
  2  1  1  0  0  0
  2  3  1  0  0  0
  3  4  1  0  0  0
  4 19  1  0  0  0
 19 20  2  0  0  0
 20 21  1  0  0  0
 21 22  2  0  0  0
 22 23  1  0  0  0
 23 24  2  0  0  0
 24 25  1  0  0  0
 25 26  2  0  0  0
 26 27  1  0  0  0
 27 28  2  0  0  0
  4  5  1  0  0  0
  5  6  2  0  0  0
  5  7  1  0  0  0
  7  8  1  0  0  0
  8  9  1  0  0  0
  9 29  1  0  0  0
 29 30  1  0  0  0
 30 31  1  0  0  0
 31 32  2  0  0  0
 32 33  1  0  0  0
 33 34  1  0  0  0
  9 10  1  0  0  0
 10 11  2  0  0  0
 10 12  1  0  0  0
 12 13  2  0  0  0
 13 14  1  0  0  0
 14 15  2  0  0  0
 15 16  1  0  0  0
 15 17  1  0  0  0
 17 18  2  0  0  0
  7  2  1  0  0  0
 34 30  2  0  0  0
 18 12  1  0  0  0
 28 19  1  0  0  0
 18  7  1  0  0  0
 28 23  1  0  0  0
 33 35  1  0  0  0
M  END
> <minimizedAffinity>
-8.05762

> <CNNscore>
0.4524462223

> <CNNaffinity>
6.5941591263

> <CNN_VS>
2.9835023880

> <CNNaffinity_variance>
0.1618312895

$$$$



 35 40  0  0  0  0  0  0  0  0999 V2000
    9.1595   -0.9597   23.7245 C   0  0  0  0  0  0  0  0  0  0  0  0
    7.9981   -1.3531   22.8605 C   0  0  0  0  0  0  0  0  0  0  0  0
    7.6054   -0.2575   21.9142 C   0  0  0  0  0  0  0  0  0  0  0  0
    6.4437   -0.7433   21.0990 N   0  0  0  0  0  0  0  0  0  0  0  0
    6.1185   -2.1391   21.5416 C   0  0  0  0  0  0  0  0  0  0  0  0
    5.0246   -3.0059   20.9920 O   0  0  0  0  0  0  0  0  0  0  0  0
    7.0791   -2.5160   22.6302 C   0  0  0  0  0  0  0  0  0  0  0  0
    6.0908   -3.5916   22.2894 C   0  0  0  0  0  0  0  0  0  0  0  0
    6.1262   -4.9014   23.0196 N   0  0  0  0  0  0  0  0  0  0  0  0
    7.1500   -5.1356   24.0905 C   0  0  0  0  0  0  0  0  0  0  0  0
    7.1854   -6.4454   24.8207 O   0  0  0  0  0  0  0  0  0  0  0  0
    8.1384   -4.0600   24.4314 C   0  0  0  0  0  0  0  0  0  0  0  0
    9.1621   -4.2941   25.5024 C   0  0  0  0  0  0  0  0  0  0  0  0
   10.1505   -3.2185   25.8432 C   0  0  0  0  0  0  0  0  0  0  0  0
   10.1150   -1.9087   25.1130 C   0  0  0  0  0  0  0  0  0  0  0  0
   11.1034   -0.8330   25.4539 F   0  0  0  0  0  0  0  0  0  0  0  0
    9.0913   -1.6745   24.0421 C   0  0  0  0  0  0  0  0  0  0  0  0
    8.1030   -2.7501   23.7012 C   0  0  0  0  0  0  0  0  0  0  0  0
    5.7322    0.0308   20.0292 C   0  0  0  0  0  0  0  0  0  0  0  0
    6.2164   -0.0310   18.6109 C   0  0  0  0  0  0  0  0  0  0  0  0
    5.5049    0.7430   17.5411 N   0  0  0  0  0  0  0  0  0  0  0  0
    4.3092    1.5789   17.8896 C   0  0  0  0  0  0  0  0  0  0  0  0
    3.8250    1.6408   19.3080 C   0  0  0  0  0  0  0  0  0  0  0  0
    2.6292    2.4767   19.6565 C   0  0  0  0  0  0  0  0  0  0  0  0
    2.1451    2.5385   21.0749 C   0  0  0  0  0  0  0  0  0  0  0  0
    2.8566    1.7645   22.1447 C   0  0  0  0  0  0  0  0  0  0  0  0
    4.0523    0.9285   21.7961 C   0  0  0  0  0  0  0  0  0  0  0  0
    4.5365    0.8667   20.3778 C   0  0  0  0  0  0  0  0  0  0  0  0
    5.1378   -5.9771   22.6787 C   0  0  0  0  0  0  0  0  0  0  0  0
    3.8824   -6.1252   23.4860 C   0  0  0  0  0  0  0  0  0  0  0  0
    2.5991   -6.7427   23.0151 C   0  0  0  0  0  0  0  0  0  0  0  0
    1.6133   -6.6810   24.1440 C   0  0  0  0  0  0  0  0  0  0  0  0
    2.2875   -6.0254   25.3127 N   0  0  0  0  0  0  0  0  0  0  0  0
    3.6898   -5.6819   24.9060 N   0  0  0  0  0  0  0  0  0  0  0  0
    1.8809   -5.8511   26.1923 H   0  0  0  0  0  0  0  0  0  0  0  0
  2  1  1  0  0  0
  2  3  1  0  0  0
  3  4  1  0  0  0
  4 19  1  0  0  0
 19 20  2  0  0  0
 20 21  1  0  0  0
 21 22  2  0  0  0
 22 23  1  0  0  0
 23 24  2  0  0  0
 24 25  1  0  0  0
 25 26  2  0  0  0
 26 27  1  0  0  0
 27 28  2  0  0  0
  4  5  1  0  0  0
  5  6  2  0  0  0
  5  7  1  0  0  0
  7  8  1  0  0  0
  8  9  1  0  0  0
  9 29  1  0  0  0
 29 30  1  0  0  0
 30 31  1  0  0  0
 31 32  2  0  0  0
 32 33  1  0  0  0
 33 34  1  0  0  0
  9 10  1  0  0  0
 10 11  2  0  0  0
 10 12  1  0  0  0
 12 13  2  0  0  0
 13 14  1  0  0  0
 14 15  2  0  0  0
 15 16  1  0  0  0
 15 17  1  0  0  0
 17 18  2  0  0  0
  7  2  1  0  0  0
 34 30  2  0  0  0
 18 12  1  0  0  0
 28 19  1  0  0  0
 18  7  1  0  0  0
 28 23  1  0  0  0
 33 35  1  0  0  0
M  END
> <minimizedAffinity>
-8.25423

> <CNNscore>
0.4171456397

> <CNNaffinity>
6.4396948814

> <CNN_VS>
2.6862907410

> <CNNaffinity_variance>
0.0329997875

$$$$



 35 40  0  0  0  0  0  0  0  0999 V2000
    9.5789    3.0573   22.5839 C   0  0  0  0  0  0  0  0  0  0  0  0
    8.5303    2.0279   22.8855 C   0  0  0  0  0  0  0  0  0  0  0  0
    7.1437    2.5892   22.7750 C   0  0  0  0  0  0  0  0  0  0  0  0
    6.1724    1.4911   23.0926 N   0  0  0  0  0  0  0  0  0  0  0  0
    6.9588    0.2512   23.3995 C   0  0  0  0  0  0  0  0  0  0  0  0
    6.3881   -1.0858   23.7694 O   0  0  0  0  0  0  0  0  0  0  0  0
    8.4161    0.5829   23.2715 C   0  0  0  0  0  0  0  0  0  0  0  0
    8.1462   -0.8415   23.6563 C   0  0  0  0  0  0  0  0  0  0  0  0
    9.2886   -1.7885   23.8757 N   0  0  0  0  0  0  0  0  0  0  0  0
   10.7009   -1.3110   23.7103 C   0  0  0  0  0  0  0  0  0  0  0  0
   11.8433   -2.2580   23.9297 O   0  0  0  0  0  0  0  0  0  0  0  0
   10.9708    0.1135   23.3255 C   0  0  0  0  0  0  0  0  0  0  0  0
   12.3831    0.5909   23.1601 C   0  0  0  0  0  0  0  0  0  0  0  0
   12.6530    2.0153   22.7753 C   0  0  0  0  0  0  0  0  0  0  0  0
   11.5106    2.9623   22.5559 C   0  0  0  0  0  0  0  0  0  0  0  0
   11.7806    4.3868   22.1710 F   0  0  0  0  0  0  0  0  0  0  0  0
   10.0983    2.4849   22.7212 C   0  0  0  0  0  0  0  0  0  0  0  0
    9.8284    1.0604   23.1061 C   0  0  0  0  0  0  0  0  0  0  0  0
    4.6773    1.6118   23.1018 C   0  0  0  0  0  0  0  0  0  0  0  0
    3.9241    1.5031   24.3943 C   0  0  0  0  0  0  0  0  0  0  0  0
    2.4290    1.6237   24.4035 N   0  0  0  0  0  0  0  0  0  0  0  0
    1.6872    1.8531   23.1202 C   0  0  0  0  0  0  0  0  0  0  0  0
    2.4405    1.9618   21.8276 C   0  0  0  0  0  0  0  0  0  0  0  0
    1.6986    2.1911   20.5441 C   0  0  0  0  0  0  0  0  0  0  0  0
    2.4520    2.2998   19.2516 C   0  0  0  0  0  0  0  0  0  0  0  0
    3.9470    2.1792   19.2425 C   0  0  0  0  0  0  0  0  0  0  0  0
    4.6888    1.9498   20.5259 C   0  0  0  0  0  0  0  0  0  0  0  0
    3.9356    1.8411   21.8184 C   0  0  0  0  0  0  0  0  0  0  0  0
    9.0186   -3.2130   24.2605 C   0  0  0  0  0  0  0  0  0  0  0  0
    9.5988   -3.7708   25.5263 C   0  0  0  0  0  0  0  0  0  0  0  0
    9.2823   -3.3113   26.9187 C   0  0  0  0  0  0  0  0  0  0  0  0
   10.0852   -4.1425   27.8749 C   0  0  0  0  0  0  0  0  0  0  0  0
   10.8981   -5.1157   27.0735 N   0  0  0  0  0  0  0  0  0  0  0  0
   10.5975   -4.8859   25.6220 N   0  0  0  0  0  0  0  0  0  0  0  0
   11.5198   -5.7873   27.4364 H   0  0  0  0  0  0  0  0  0  0  0  0
  2  1  1  0  0  0
  2  3  1  0  0  0
  3  4  1  0  0  0
  4 19  1  0  0  0
 19 20  2  0  0  0
 20 21  1  0  0  0
 21 22  2  0  0  0
 22 23  1  0  0  0
 23 24  2  0  0  0
 24 25  1  0  0  0
 25 26  2  0  0  0
 26 27  1  0  0  0
 27 28  2  0  0  0
  4  5  1  0  0  0
  5  6  2  0  0  0
  5  7  1  0  0  0
  7  8  1  0  0  0
  8  9  1  0  0  0
  9 29  1  0  0  0
 29 30  1  0  0  0
 30 31  1  0  0  0
 31 32  2  0  0  0
 32 33  1  0  0  0
 33 34  1  0  0  0
  9 10  1  0  0  0
 10 11  2  0  0  0
 10 12  1  0  0  0
 12 13  2  0  0  0
 13 14  1  0  0  0
 14 15  2  0  0  0
 15 16  1  0  0  0
 15 17  1  0  0  0
 17 18  2  0  0  0
  7  2  1  0  0  0
 34 30  2  0  0  0
 18 12  1  0  0  0
 28 19  1  0  0  0
 18  7  1  0  0  0
 28 23  1  0  0  0
 33 35  1  0  0  0
M  END
> <minimizedAffinity>
-8.32266

> <CNNscore>
0.3366824985

> <CNNaffinity>
6.4717192650

> <CNN_VS>
2.1789145470

> <CNNaffinity_variance>
0.1235169619

$$$$



 35 40  0  0  0  0  0  0  0  0999 V2000
   11.0171    0.0424   22.5336 C   0  0  0  0  0  0  0  0  0  0  0  0
    9.6317   -0.4817   22.2965 C   0  0  0  0  0  0  0  0  0  0  0  0
    8.9153    0.2881   21.2268 C   0  0  0  0  0  0  0  0  0  0  0  0
    7.5482   -0.3073   21.0640 N   0  0  0  0  0  0  0  0  0  0  0  0
    7.4198   -1.4451   22.0331 C   0  0  0  0  0  0  0  0  0  0  0  0
    6.2151   -2.3212   22.2095 O   0  0  0  0  0  0  0  0  0  0  0  0
    8.7075   -1.5528   22.7948 C   0  0  0  0  0  0  0  0  0  0  0  0
    7.6781   -2.5699   23.1897 C   0  0  0  0  0  0  0  0  0  0  0  0
    7.9873   -3.5727   24.2615 N   0  0  0  0  0  0  0  0  0  0  0  0
    9.3258   -3.5585   24.9384 C   0  0  0  0  0  0  0  0  0  0  0  0
    9.6349   -4.5613   26.0102 O   0  0  0  0  0  0  0  0  0  0  0  0
   10.3552   -2.5414   24.5435 C   0  0  0  0  0  0  0  0  0  0  0  0
   11.6937   -2.5272   25.2203 C   0  0  0  0  0  0  0  0  0  0  0  0
   12.7230   -1.5102   24.8254 C   0  0  0  0  0  0  0  0  0  0  0  0
   12.4139   -0.5074   23.7536 C   0  0  0  0  0  0  0  0  0  0  0  0
   13.4433    0.5097   23.3586 F   0  0  0  0  0  0  0  0  0  0  0  0
   11.0754   -0.5216   23.0767 C   0  0  0  0  0  0  0  0  0  0  0  0
   10.0461   -1.5386   23.4717 C   0  0  0  0  0  0  0  0  0  0  0  0
    6.4945    0.1540   20.1013 C   0  0  0  0  0  0  0  0  0  0  0  0
    6.3881   -0.4793   18.7458 C   0  0  0  0  0  0  0  0  0  0  0  0
    5.3344   -0.0180   17.7830 N   0  0  0  0  0  0  0  0  0  0  0  0
    4.3871    1.0766   18.1759 C   0  0  0  0  0  0  0  0  0  0  0  0
    4.4935    1.7100   19.5315 C   0  0  0  0  0  0  0  0  0  0  0  0
    3.5461    2.8046   19.9243 C   0  0  0  0  0  0  0  0  0  0  0  0
    3.6525    3.4379   21.2799 C   0  0  0  0  0  0  0  0  0  0  0  0
    4.7062    2.9766   22.2426 C   0  0  0  0  0  0  0  0  0  0  0  0
    5.6535    1.8819   21.8497 C   0  0  0  0  0  0  0  0  0  0  0  0
    5.5472    1.2486   20.4942 C   0  0  0  0  0  0  0  0  0  0  0  0
    6.9578   -4.5898   24.6565 C   0  0  0  0  0  0  0  0  0  0  0  0
    6.1928   -5.3315   23.6008 C   0  0  0  0  0  0  0  0  0  0  0  0
    6.7271   -5.7715   22.2700 C   0  0  0  0  0  0  0  0  0  0  0  0
    5.6237   -6.4754   21.5373 C   0  0  0  0  0  0  0  0  0  0  0  0
    4.4074   -6.4706   22.4152 N   0  0  0  0  0  0  0  0  0  0  0  0
    4.7592   -5.7636   23.6905 N   0  0  0  0  0  0  0  0  0  0  0  0
    3.5320   -6.8626   22.1933 H   0  0  0  0  0  0  0  0  0  0  0  0
  2  1  1  0  0  0
  2  3  1  0  0  0
  3  4  1  0  0  0
  4 19  1  0  0  0
 19 20  2  0  0  0
 20 21  1  0  0  0
 21 22  2  0  0  0
 22 23  1  0  0  0
 23 24  2  0  0  0
 24 25  1  0  0  0
 25 26  2  0  0  0
 26 27  1  0  0  0
 27 28  2  0  0  0
  4  5  1  0  0  0
  5  6  2  0  0  0
  5  7  1  0  0  0
  7  8  1  0  0  0
  8  9  1  0  0  0
  9 29  1  0  0  0
 29 30  1  0  0  0
 30 31  1  0  0  0
 31 32  2  0  0  0
 32 33  1  0  0  0
 33 34  1  0  0  0
  9 10  1  0  0  0
 10 11  2  0  0  0
 10 12  1  0  0  0
 12 13  2  0  0  0
 13 14  1  0  0  0
 14 15  2  0  0  0
 15 16  1  0  0  0
 15 17  1  0  0  0
 17 18  2  0  0  0
  7  2  1  0  0  0
 34 30  2  0  0  0
 18 12  1  0  0  0
 28 19  1  0  0  0
 18  7  1  0  0  0
 28 23  1  0  0  0
 33 35  1  0  0  0
M  END
> <minimizedAffinity>
-9.52779

> <CNNscore>
0.3182274103

> <CNNaffinity>
6.5375852585

> <CNN_VS>
2.0804388523

> <CNNaffinity_variance>
0.1949084997

$$$$



 35 40  0  0  0  0  0  0  0  0999 V2000
    6.0071    1.4487   23.1482 C   0  0  0  0  0  0  0  0  0  0  0  0
    6.6399    0.0914   23.2354 C   0  0  0  0  0  0  0  0  0  0  0  0
    5.6160   -1.0031   23.2950 C   0  0  0  0  0  0  0  0  0  0  0  0
    6.3421   -2.3129   23.3799 N   0  0  0  0  0  0  0  0  0  0  0  0
    7.8147   -2.0278   23.3728 C   0  0  0  0  0  0  0  0  0  0  0  0
    8.9109   -3.0494   23.4427 O   0  0  0  0  0  0  0  0  0  0  0  0
    7.9988   -0.5419   23.2835 C   0  0  0  0  0  0  0  0  0  0  0  0
    9.2839   -1.3135   23.3395 C   0  0  0  0  0  0  0  0  0  0  0  0
   10.5964   -0.5882   23.3044 N   0  0  0  0  0  0  0  0  0  0  0  0
   10.6239    0.9087   23.2133 C   0  0  0  0  0  0  0  0  0  0  0  0
   11.9364    1.6341   23.1782 O   0  0  0  0  0  0  0  0  0  0  0  0
    9.3388    1.6805   23.1573 C   0  0  0  0  0  0  0  0  0  0  0  0
    9.3662    3.1774   23.0662 C   0  0  0  0  0  0  0  0  0  0  0  0
    8.0812    3.9491   23.0102 C   0  0  0  0  0  0  0  0  0  0  0  0
    6.7687    3.2237   23.0453 C   0  0  0  0  0  0  0  0  0  0  0  0
    5.4836    3.9955   22.9893 F   0  0  0  0  0  0  0  0  0  0  0  0
    6.7412    1.7268   23.1364 C   0  0  0  0  0  0  0  0  0  0  0  0
    8.0263    0.9552   23.1924 C   0  0  0  0  0  0  0  0  0  0  0  0
    5.7071   -3.6696   23.4582 C   0  0  0  0  0  0  0  0  0  0  0  0
    5.5205   -4.4834   22.2121 C   0  0  0  0  0  0  0  0  0  0  0  0
    4.8855   -5.8401   22.2904 N   0  0  0  0  0  0  0  0  0  0  0  0
    4.4370   -6.3829   23.6149 C   0  0  0  0  0  0  0  0  0  0  0  0
    4.6235   -5.5691   24.8610 C   0  0  0  0  0  0  0  0  0  0  0  0
    4.1750   -6.1119   26.1855 C   0  0  0  0  0  0  0  0  0  0  0  0
    4.3616   -5.2980   27.4316 C   0  0  0  0  0  0  0  0  0  0  0  0
    4.9966   -3.9414   27.3532 C   0  0  0  0  0  0  0  0  0  0  0  0
    5.4451   -3.3986   26.0288 C   0  0  0  0  0  0  0  0  0  0  0  0
    5.2586   -4.2124   24.7827 C   0  0  0  0  0  0  0  0  0  0  0  0
   11.8815   -1.3599   23.3604 C   0  0  0  0  0  0  0  0  0  0  0  0
   12.3693   -1.9105   24.6676 C   0  0  0  0  0  0  0  0  0  0  0  0
   11.7469   -3.0378   25.4368 C   0  0  0  0  0  0  0  0  0  0  0  0
   12.5581   -3.2544   26.6797 C   0  0  0  0  0  0  0  0  0  0  0  0
   13.6821   -2.2610   26.6787 N   0  0  0  0  0  0  0  0  0  0  0  0
   13.5654   -1.4304   25.4351 N   0  0  0  0  0  0  0  0  0  0  0  0
   14.3747   -2.1701   27.3724 H   0  0  0  0  0  0  0  0  0  0  0  0
  2  1  1  0  0  0
  2  3  1  0  0  0
  3  4  1  0  0  0
  4 19  1  0  0  0
 19 20  2  0  0  0
 20 21  1  0  0  0
 21 22  2  0  0  0
 22 23  1  0  0  0
 23 24  2  0  0  0
 24 25  1  0  0  0
 25 26  2  0  0  0
 26 27  1  0  0  0
 27 28  2  0  0  0
  4  5  1  0  0  0
  5  6  2  0  0  0
  5  7  1  0  0  0
  7  8  1  0  0  0
  8  9  1  0  0  0
  9 29  1  0  0  0
 29 30  1  0  0  0
 30 31  1  0  0  0
 31 32  2  0  0  0
 32 33  1  0  0  0
 33 34  1  0  0  0
  9 10  1  0  0  0
 10 11  2  0  0  0
 10 12  1  0  0  0
 12 13  2  0  0  0
 13 14  1  0  0  0
 14 15  2  0  0  0
 15 16  1  0  0  0
 15 17  1  0  0  0
 17 18  2  0  0  0
  7  2  1  0  0  0
 34 30  2  0  0  0
 18 12  1  0  0  0
 28 19  1  0  0  0
 18  7  1  0  0  0
 28 23  1  0  0  0
 33 35  1  0  0  0
M  END
> <minimizedAffinity>
-7.97819

> <CNNscore>
0.2861849368

> <CNNaffinity>
6.6115927696

> <CNN_VS>
1.8921382427

> <CNNaffinity_variance>
0.0895955116

$$$$



 35 40  0  0  0  0  0  0  0  0999 V2000
   10.6291   -3.5913   25.3494 C   0  0  0  0  0  0  0  0  0  0  0  0
    9.3788   -3.2750   24.5833 C   0  0  0  0  0  0  0  0  0  0  0  0
    8.3545   -4.3641   24.7051 C   0  0  0  0  0  0  0  0  0  0  0  0
    7.1492   -3.9577   23.9101 N   0  0  0  0  0  0  0  0  0  0  0  0
    7.4285   -2.6176   23.2970 C   0  0  0  0  0  0  0  0  0  0  0  0
    6.4939   -1.8365   22.4216 O   0  0  0  0  0  0  0  0  0  0  0  0
    8.8065   -2.1956   23.7131 C   0  0  0  0  0  0  0  0  0  0  0  0
    8.1053   -1.2051   22.8314 C   0  0  0  0  0  0  0  0  0  0  0  0
    8.7907    0.0720   22.4451 N   0  0  0  0  0  0  0  0  0  0  0  0
   10.1772    0.3586   22.9403 C   0  0  0  0  0  0  0  0  0  0  0  0
   10.8625    1.6358   22.5540 O   0  0  0  0  0  0  0  0  0  0  0  0
   10.8785   -0.6318   23.8220 C   0  0  0  0  0  0  0  0  0  0  0  0
   12.2650   -0.3452   24.3173 C   0  0  0  0  0  0  0  0  0  0  0  0
   12.9661   -1.3356   25.1989 C   0  0  0  0  0  0  0  0  0  0  0  0
   12.2808   -2.6128   25.5853 C   0  0  0  0  0  0  0  0  0  0  0  0
   12.9821   -3.6032   26.4669 F   0  0  0  0  0  0  0  0  0  0  0  0
   10.8943   -2.8994   25.0900 C   0  0  0  0  0  0  0  0  0  0  0  0
   10.1931   -1.9090   24.2084 C   0  0  0  0  0  0  0  0  0  0  0  0
    5.8862   -4.7521   23.7554 C   0  0  0  0  0  0  0  0  0  0  0  0
    5.5266   -5.3367   22.4218 C   0  0  0  0  0  0  0  0  0  0  0  0
    4.2636   -6.1311   22.2671 N   0  0  0  0  0  0  0  0  0  0  0  0
    3.3603   -6.3407   23.4461 C   0  0  0  0  0  0  0  0  0  0  0  0
    3.7200   -5.7560   24.7798 C   0  0  0  0  0  0  0  0  0  0  0  0
    2.8166   -5.9657   25.9589 C   0  0  0  0  0  0  0  0  0  0  0  0
    3.1764   -5.3809   27.2925 C   0  0  0  0  0  0  0  0  0  0  0  0
    4.4393   -4.5866   27.4472 C   0  0  0  0  0  0  0  0  0  0  0  0
    5.3426   -4.3770   26.2682 C   0  0  0  0  0  0  0  0  0  0  0  0
    4.9829   -4.9617   24.9345 C   0  0  0  0  0  0  0  0  0  0  0  0
    8.0894    1.0625   21.5634 C   0  0  0  0  0  0  0  0  0  0  0  0
    7.0127    0.6017   20.6262 C   0  0  0  0  0  0  0  0  0  0  0  0
    5.5423    0.8553   20.7799 C   0  0  0  0  0  0  0  0  0  0  0  0
    4.8381    0.2168   19.6195 C   0  0  0  0  0  0  0  0  0  0  0  0
    5.8733   -0.4313   18.7486 N   0  0  0  0  0  0  0  0  0  0  0  0
    7.2173   -0.1934   19.3709 N   0  0  0  0  0  0  0  0  0  0  0  0
    5.7009   -0.9259   17.9150 H   0  0  0  0  0  0  0  0  0  0  0  0
  2  1  1  0  0  0
  2  3  1  0  0  0
  3  4  1  0  0  0
  4 19  1  0  0  0
 19 20  2  0  0  0
 20 21  1  0  0  0
 21 22  2  0  0  0
 22 23  1  0  0  0
 23 24  2  0  0  0
 24 25  1  0  0  0
 25 26  2  0  0  0
 26 27  1  0  0  0
 27 28  2  0  0  0
  4  5  1  0  0  0
  5  6  2  0  0  0
  5  7  1  0  0  0
  7  8  1  0  0  0
  8  9  1  0  0  0
  9 29  1  0  0  0
 29 30  1  0  0  0
 30 31  1  0  0  0
 31 32  2  0  0  0
 32 33  1  0  0  0
 33 34  1  0  0  0
  9 10  1  0  0  0
 10 11  2  0  0  0
 10 12  1  0  0  0
 12 13  2  0  0  0
 13 14  1  0  0  0
 14 15  2  0  0  0
 15 16  1  0  0  0
 15 17  1  0  0  0
 17 18  2  0  0  0
  7  2  1  0  0  0
 34 30  2  0  0  0
 18 12  1  0  0  0
 28 19  1  0  0  0
 18  7  1  0  0  0
 28 23  1  0  0  0
 33 35  1  0  0  0
M  END
> <minimizedAffinity>
-9.29354

> <CNNscore>
0.2703320086

> <CNNaffinity>
6.4141945839

> <CNN_VS>
1.7339620590

> <CNNaffinity_variance>
0.1497417092

$$$$



 35 40  0  0  0  0  0  0  0  0999 V2000
    7.2031    0.0774   20.1171 C   0  0  0  0  0  0  0  0  0  0  0  0
    7.5761    0.0397   21.5695 C   0  0  0  0  0  0  0  0  0  0  0  0
    8.9864   -0.4277   21.7755 C   0  0  0  0  0  0  0  0  0  0  0  0
    9.2629   -0.4313   23.2498 N   0  0  0  0  0  0  0  0  0  0  0  0
    8.0234    0.0340   23.9550 C   0  0  0  0  0  0  0  0  0  0  0  0
    7.8558    0.1821   25.4382 O   0  0  0  0  0  0  0  0  0  0  0  0
    6.9808    0.3250   22.9165 C   0  0  0  0  0  0  0  0  0  0  0  0
    6.5237    0.5671   24.3244 C   0  0  0  0  0  0  0  0  0  0  0  0
    5.1306    1.0574   24.5868 N   0  0  0  0  0  0  0  0  0  0  0  0
    4.1946    1.3056   23.4413 C   0  0  0  0  0  0  0  0  0  0  0  0
    2.8015    1.7959   23.7037 O   0  0  0  0  0  0  0  0  0  0  0  0
    4.6518    1.0635   22.0332 C   0  0  0  0  0  0  0  0  0  0  0  0
    3.7158    1.3117   20.8877 C   0  0  0  0  0  0  0  0  0  0  0  0
    4.1729    1.0697   19.4798 C   0  0  0  0  0  0  0  0  0  0  0  0
    5.5661    0.5794   19.2174 C   0  0  0  0  0  0  0  0  0  0  0  0
    6.0232    0.3373   17.8093 F   0  0  0  0  0  0  0  0  0  0  0  0
    6.5020    0.3312   20.3629 C   0  0  0  0  0  0  0  0  0  0  0  0
    6.0449    0.5732   21.7708 C   0  0  0  0  0  0  0  0  0  0  0  0
   10.5524   -0.8300   23.9041 C   0  0  0  0  0  0  0  0  0  0  0  0
   11.7788    0.0139   23.7207 C   0  0  0  0  0  0  0  0  0  0  0  0
   13.0683   -0.3848   24.3750 N   0  0  0  0  0  0  0  0  0  0  0  0
   13.1313   -1.6275   25.2128 C   0  0  0  0  0  0  0  0  0  0  0  0
   11.9049   -2.4714   25.3962 C   0  0  0  0  0  0  0  0  0  0  0  0
   11.9680   -3.7141   26.2340 C   0  0  0  0  0  0  0  0  0  0  0  0
   10.7415   -4.5580   26.4173 C   0  0  0  0  0  0  0  0  0  0  0  0
    9.4520   -4.1592   25.7630 C   0  0  0  0  0  0  0  0  0  0  0  0
    9.3890   -2.9165   24.9253 C   0  0  0  0  0  0  0  0  0  0  0  0
   10.6154   -2.0727   24.7419 C   0  0  0  0  0  0  0  0  0  0  0  0
    4.6734    1.2995   25.9949 C   0  0  0  0  0  0  0  0  0  0  0  0
    4.7269    0.1893   27.0021 C   0  0  0  0  0  0  0  0  0  0  0  0
    5.4163    0.2390   28.3333 C   0  0  0  0  0  0  0  0  0  0  0  0
    5.2158   -1.0851   29.0089 C   0  0  0  0  0  0  0  0  0  0  0  0
    4.4023   -1.9533   28.0952 N   0  0  0  0  0  0  0  0  0  0  0  0
    4.1002   -1.1656   26.8550 N   0  0  0  0  0  0  0  0  0  0  0  0
    4.1169   -2.8777   28.2776 H   0  0  0  0  0  0  0  0  0  0  0  0
  2  1  1  0  0  0
  2  3  1  0  0  0
  3  4  1  0  0  0
  4 19  1  0  0  0
 19 20  2  0  0  0
 20 21  1  0  0  0
 21 22  2  0  0  0
 22 23  1  0  0  0
 23 24  2  0  0  0
 24 25  1  0  0  0
 25 26  2  0  0  0
 26 27  1  0  0  0
 27 28  2  0  0  0
  4  5  1  0  0  0
  5  6  2  0  0  0
  5  7  1  0  0  0
  7  8  1  0  0  0
  8  9  1  0  0  0
  9 29  1  0  0  0
 29 30  1  0  0  0
 30 31  1  0  0  0
 31 32  2  0  0  0
 32 33  1  0  0  0
 33 34  1  0  0  0
  9 10  1  0  0  0
 10 11  2  0  0  0
 10 12  1  0  0  0
 12 13  2  0  0  0
 13 14  1  0  0  0
 14 15  2  0  0  0
 15 16  1  0  0  0
 15 17  1  0  0  0
 17 18  2  0  0  0
  7  2  1  0  0  0
 34 30  2  0  0  0
 18 12  1  0  0  0
 28 19  1  0  0  0
 18  7  1  0  0  0
 28 23  1  0  0  0
 33 35  1  0  0  0
M  END
> <minimizedAffinity>
-8.27229

> <CNNscore>
0.2456303835

> <CNNaffinity>
6.2259812355

> <CNN_VS>
1.5292901993

> <CNNaffinity_variance>
0.1036033779

$$$$
