


 28 32  0  0  0  0  0  0  0  0999 V2000
    4.7780   -3.2559   21.4359 O   0  0  0  0  0  0  0  0  0  0  0  0
    6.0826   -2.5979   21.7750 C   0  0  0  0  0  0  0  0  0  0  0  0
    7.1001   -3.1088   22.7517 N   0  0  0  0  0  0  0  0  0  0  0  0
    8.2451   -2.1402   22.7773 C   0  0  0  0  0  0  0  0  0  0  0  0
    8.7551   -3.1330   23.7793 C   0  0  0  0  0  0  0  0  0  0  0  0
    9.9953   -2.3095   23.9639 C   0  0  0  0  0  0  0  0  0  0  0  0
    9.4852   -1.3167   22.9619 C   0  0  0  0  0  0  0  0  0  0  0  0
    7.9353   -1.0308   21.8164 C   0  0  0  0  0  0  0  0  0  0  0  0
    8.8087    0.1537   21.5260 O   0  0  0  0  0  0  0  0  0  0  0  0
    6.5988   -1.3137   21.1970 N   0  0  0  0  0  0  0  0  0  0  0  0
    7.0288   -3.9347   23.2827 H   0  0  0  0  0  0  0  0  0  0  0  0
    5.9011   -0.4619   20.1784 C   0  0  0  0  0  0  0  0  0  0  0  0
    6.3053   -0.5351   18.7358 C   0  0  0  0  0  0  0  0  0  0  0  0
    5.6075    0.3167   17.7172 N   0  0  0  0  0  0  0  0  0  0  0  0
    4.5055    1.2417   18.1412 C   0  0  0  0  0  0  0  0  0  0  0  0
    4.1012    1.3150   19.5839 C   0  0  0  0  0  0  0  0  0  0  0  0
    2.9992    2.2400   20.0079 C   0  0  0  0  0  0  0  0  0  0  0  0
    2.5950    2.3133   21.4505 C   0  0  0  0  0  0  0  0  0  0  0  0
    3.2927    1.4615   22.4691 C   0  0  0  0  0  0  0  0  0  0  0  0
    4.3947    0.5364   22.0451 C   0  0  0  0  0  0  0  0  0  0  0  0
    4.7990    0.4632   20.6025 C   0  0  0  0  0  0  0  0  0  0  0  0
   11.2328   -2.4294   24.8031 C   0  0  0  0  0  0  0  0  0  0  0  0
   12.3980   -1.5178   24.5557 C   0  0  0  0  0  0  0  0  0  0  0  0
   13.6355   -1.6378   25.3949 C   0  0  0  0  0  0  0  0  0  0  0  0
   13.7077   -2.6694   26.4815 C   0  0  0  0  0  0  0  0  0  0  0  0
   12.5425   -3.5810   26.7289 C   0  0  0  0  0  0  0  0  0  0  0  0
   11.3050   -3.4610   25.8897 C   0  0  0  0  0  0  0  0  0  0  0  0
   10.1398   -4.3726   26.1371 Cl  0  0  0  0  0  0  0  0  0  0  0  0
  1  2  2  0  0  0
  2  3  1  0  0  0
  3  4  1  0  0  0
  4  5  1  0  0  0
  5  6  1  0  0  0
  6 22  1  0  0  0
 22 23  2  0  0  0
 23 24  1  0  0  0
 24 25  2  0  0  0
 25 26  1  0  0  0
 26 27  2  0  0  0
 27 28  1  0  0  0
  6  7  1  0  0  0
  4  8  1  0  0  0
  8  9  2  0  0  0
  8 10  1  0  0  0
 10 12  1  0  0  0
 12 13  2  0  0  0
 13 14  1  0  0  0
 14 15  2  0  0  0
 15 16  1  0  0  0
 16 17  2  0  0  0
 17 18  1  0  0  0
 18 19  2  0  0  0
 19 20  1  0  0  0
 20 21  2  0  0  0
 10  2  1  0  0  0
 21 12  1  0  0  0
  7  4  1  0  0  0
 21 16  1  0  0  0
 27 22  1  0  0  0
  3 11  1  0  0  0
M  END
> <minimizedAffinity>
-8.74392

> <CNNscore>
0.9218803644

> <CNNaffinity>
6.4662199020

> <CNN_VS>
5.9610810280

> <CNNaffinity_variance>
0.0896697119

$$$$



 28 32  0  0  0  0  0  0  0  0999 V2000
    6.9788   -0.0413   18.6265 O   0  0  0  0  0  0  0  0  0  0  0  0
    7.3560   -0.0848   20.0776 C   0  0  0  0  0  0  0  0  0  0  0  0
    8.5490   -0.7849   20.6579 N   0  0  0  0  0  0  0  0  0  0  0  0
    8.5367   -0.5687   22.1422 C   0  0  0  0  0  0  0  0  0  0  0  0
    9.7815   -1.3988   22.0362 C   0  0  0  0  0  0  0  0  0  0  0  0
    9.9661   -1.3114   23.5223 C   0  0  0  0  0  0  0  0  0  0  0  0
    8.7213   -0.4813   23.6282 C   0  0  0  0  0  0  0  0  0  0  0  0
    7.3361    0.2650   22.4792 C   0  0  0  0  0  0  0  0  0  0  0  0
    6.9355    0.7197   23.8514 O   0  0  0  0  0  0  0  0  0  0  0  0
    6.6063    0.5640   21.2033 N   0  0  0  0  0  0  0  0  0  0  0  0
    9.2219   -1.2964   20.1532 H   0  0  0  0  0  0  0  0  0  0  0  0
    5.3479    1.3703   21.0754 C   0  0  0  0  0  0  0  0  0  0  0  0
    4.0798    0.7136   20.6166 C   0  0  0  0  0  0  0  0  0  0  0  0
    2.8214    1.5199   20.4887 N   0  0  0  0  0  0  0  0  0  0  0  0
    2.8312    2.9829   20.8197 C   0  0  0  0  0  0  0  0  0  0  0  0
    4.0993    3.6397   21.2785 C   0  0  0  0  0  0  0  0  0  0  0  0
    4.1091    5.1026   21.6094 C   0  0  0  0  0  0  0  0  0  0  0  0
    5.3772    5.7593   22.0682 C   0  0  0  0  0  0  0  0  0  0  0  0
    6.6356    4.9530   22.1961 C   0  0  0  0  0  0  0  0  0  0  0  0
    6.6259    3.4900   21.8652 C   0  0  0  0  0  0  0  0  0  0  0  0
    5.3577    2.8334   21.4064 C   0  0  0  0  0  0  0  0  0  0  0  0
   10.9770   -1.8367   24.4981 C   0  0  0  0  0  0  0  0  0  0  0  0
   10.6486   -3.0260   25.3511 C   0  0  0  0  0  0  0  0  0  0  0  0
   11.6596   -3.5512   26.3269 C   0  0  0  0  0  0  0  0  0  0  0  0
   12.9989   -2.8871   26.4497 C   0  0  0  0  0  0  0  0  0  0  0  0
   13.3273   -1.6977   25.5966 C   0  0  0  0  0  0  0  0  0  0  0  0
   12.3164   -1.1726   24.6209 C   0  0  0  0  0  0  0  0  0  0  0  0
   12.6448    0.0167   23.7679 Cl  0  0  0  0  0  0  0  0  0  0  0  0
  1  2  2  0  0  0
  2  3  1  0  0  0
  3  4  1  0  0  0
  4  5  1  0  0  0
  5  6  1  0  0  0
  6 22  1  0  0  0
 22 23  2  0  0  0
 23 24  1  0  0  0
 24 25  2  0  0  0
 25 26  1  0  0  0
 26 27  2  0  0  0
 27 28  1  0  0  0
  6  7  1  0  0  0
  4  8  1  0  0  0
  8  9  2  0  0  0
  8 10  1  0  0  0
 10 12  1  0  0  0
 12 13  2  0  0  0
 13 14  1  0  0  0
 14 15  2  0  0  0
 15 16  1  0  0  0
 16 17  2  0  0  0
 17 18  1  0  0  0
 18 19  2  0  0  0
 19 20  1  0  0  0
 20 21  2  0  0  0
 10  2  1  0  0  0
 21 12  1  0  0  0
  7  4  1  0  0  0
 21 16  1  0  0  0
 27 22  1  0  0  0
  3 11  1  0  0  0
M  END
> <minimizedAffinity>
-8.74995

> <CNNscore>
0.7703877091

> <CNNaffinity>
6.3515825272

> <CNN_VS>
4.8931813240

> <CNNaffinity_variance>
0.3527554870

$$$$



 28 32  0  0  0  0  0  0  0  0999 V2000
    6.8063    0.1488   19.3910 O   0  0  0  0  0  0  0  0  0  0  0  0
    7.3805    0.1254   20.7765 C   0  0  0  0  0  0  0  0  0  0  0  0
    8.5159   -0.7352   21.2460 N   0  0  0  0  0  0  0  0  0  0  0  0
    8.7572   -0.4339   22.6954 C   0  0  0  0  0  0  0  0  0  0  0  0
    9.8211   -1.4715   22.4910 C   0  0  0  0  0  0  0  0  0  0  0  0
   10.2339   -1.3307   23.9263 C   0  0  0  0  0  0  0  0  0  0  0  0
    9.1701   -0.2933   24.1306 C   0  0  0  0  0  0  0  0  0  0  0  0
    7.7711    0.6128   23.1218 C   0  0  0  0  0  0  0  0  0  0  0  0
    7.6560    1.2092   24.4933 O   0  0  0  0  0  0  0  0  0  0  0  0
    6.9202    0.9585   21.9358 N   0  0  0  0  0  0  0  0  0  0  0  0
    9.0150   -1.3838   20.6988 H   0  0  0  0  0  0  0  0  0  0  0  0
    5.8048    1.9613   21.9132 C   0  0  0  0  0  0  0  0  0  0  0  0
    5.9247    3.1976   21.0723 C   0  0  0  0  0  0  0  0  0  0  0  0
    4.8094    4.2003   21.0496 N   0  0  0  0  0  0  0  0  0  0  0  0
    3.5742    3.9668   21.8679 C   0  0  0  0  0  0  0  0  0  0  0  0
    3.4542    2.7304   22.7089 C   0  0  0  0  0  0  0  0  0  0  0  0
    2.2190    2.4969   23.5271 C   0  0  0  0  0  0  0  0  0  0  0  0
    2.0991    1.2606   24.3681 C   0  0  0  0  0  0  0  0  0  0  0  0
    3.2144    0.2579   24.3907 C   0  0  0  0  0  0  0  0  0  0  0  0
    4.4497    0.4914   23.5724 C   0  0  0  0  0  0  0  0  0  0  0  0
    4.5696    1.7277   22.7315 C   0  0  0  0  0  0  0  0  0  0  0  0
   11.2782   -1.9650   24.7965 C   0  0  0  0  0  0  0  0  0  0  0  0
   10.9044   -3.0848   25.7218 C   0  0  0  0  0  0  0  0  0  0  0  0
   11.9487   -3.7190   26.5920 C   0  0  0  0  0  0  0  0  0  0  0  0
   13.3668   -3.2333   26.5368 C   0  0  0  0  0  0  0  0  0  0  0  0
   13.7406   -2.1135   25.6115 C   0  0  0  0  0  0  0  0  0  0  0  0
   12.6963   -1.4793   24.7413 C   0  0  0  0  0  0  0  0  0  0  0  0
   13.0701   -0.3595   23.8160 Cl  0  0  0  0  0  0  0  0  0  0  0  0
  1  2  2  0  0  0
  2  3  1  0  0  0
  3  4  1  0  0  0
  4  5  1  0  0  0
  5  6  1  0  0  0
  6 22  1  0  0  0
 22 23  2  0  0  0
 23 24  1  0  0  0
 24 25  2  0  0  0
 25 26  1  0  0  0
 26 27  2  0  0  0
 27 28  1  0  0  0
  6  7  1  0  0  0
  4  8  1  0  0  0
  8  9  2  0  0  0
  8 10  1  0  0  0
 10 12  1  0  0  0
 12 13  2  0  0  0
 13 14  1  0  0  0
 14 15  2  0  0  0
 15 16  1  0  0  0
 16 17  2  0  0  0
 17 18  1  0  0  0
 18 19  2  0  0  0
 19 20  1  0  0  0
 20 21  2  0  0  0
 10  2  1  0  0  0
 21 12  1  0  0  0
  7  4  1  0  0  0
 21 16  1  0  0  0
 27 22  1  0  0  0
  3 11  1  0  0  0
M  END
> <minimizedAffinity>
-7.08971

> <CNNscore>
0.7242494226

> <CNNaffinity>
6.3565568924

> <CNN_VS>
4.6037325859

> <CNNaffinity_variance>
0.3959929645

$$$$



 28 32  0  0  0  0  0  0  0  0999 V2000
    7.0166   -0.0574   18.6086 O   0  0  0  0  0  0  0  0  0  0  0  0
    7.3742   -0.1046   20.0646 C   0  0  0  0  0  0  0  0  0  0  0  0
    8.5593   -0.8061   20.6591 N   0  0  0  0  0  0  0  0  0  0  0  0
    8.5270   -0.5937   22.1436 C   0  0  0  0  0  0  0  0  0  0  0  0
    9.7732   -1.4236   22.0523 C   0  0  0  0  0  0  0  0  0  0  0  0
    9.9378   -1.3400   23.5410 C   0  0  0  0  0  0  0  0  0  0  0  0
    8.6917   -0.5101   23.6322 C   0  0  0  0  0  0  0  0  0  0  0  0
    7.3219    0.2391   22.4666 C   0  0  0  0  0  0  0  0  0  0  0  0
    6.9030    0.6903   23.8344 O   0  0  0  0  0  0  0  0  0  0  0  0
    6.6094    0.5413   21.1817 N   0  0  0  0  0  0  0  0  0  0  0  0
    9.2390   -1.3164   20.1622 H   0  0  0  0  0  0  0  0  0  0  0  0
    5.3529    1.3480   21.0390 C   0  0  0  0  0  0  0  0  0  0  0  0
    4.0890    0.6906   20.5696 C   0  0  0  0  0  0  0  0  0  0  0  0
    2.8324    1.4972   20.4268 N   0  0  0  0  0  0  0  0  0  0  0  0
    2.8397    2.9612   20.7535 C   0  0  0  0  0  0  0  0  0  0  0  0
    4.1036    3.6186   21.2230 C   0  0  0  0  0  0  0  0  0  0  0  0
    4.1110    5.0825   21.5497 C   0  0  0  0  0  0  0  0  0  0  0  0
    5.3749    5.7399   22.0191 C   0  0  0  0  0  0  0  0  0  0  0  0
    6.6314    4.9332   22.1618 C   0  0  0  0  0  0  0  0  0  0  0  0
    6.6241    3.4693   21.8351 C   0  0  0  0  0  0  0  0  0  0  0  0
    5.3602    2.8120   21.3657 C   0  0  0  0  0  0  0  0  0  0  0  0
   10.9355   -1.8677   24.5290 C   0  0  0  0  0  0  0  0  0  0  0  0
   12.2297   -1.1420   24.7485 C   0  0  0  0  0  0  0  0  0  0  0  0
   13.2273   -1.6699   25.7365 C   0  0  0  0  0  0  0  0  0  0  0  0
   12.9307   -2.9235   26.5050 C   0  0  0  0  0  0  0  0  0  0  0  0
   11.6364   -3.6492   26.2855 C   0  0  0  0  0  0  0  0  0  0  0  0
   10.6388   -3.1213   25.2975 C   0  0  0  0  0  0  0  0  0  0  0  0
    9.3446   -3.8470   25.0780 Cl  0  0  0  0  0  0  0  0  0  0  0  0
  1  2  2  0  0  0
  2  3  1  0  0  0
  3  4  1  0  0  0
  4  5  1  0  0  0
  5  6  1  0  0  0
  6 22  1  0  0  0
 22 23  2  0  0  0
 23 24  1  0  0  0
 24 25  2  0  0  0
 25 26  1  0  0  0
 26 27  2  0  0  0
 27 28  1  0  0  0
  6  7  1  0  0  0
  4  8  1  0  0  0
  8  9  2  0  0  0
  8 10  1  0  0  0
 10 12  1  0  0  0
 12 13  2  0  0  0
 13 14  1  0  0  0
 14 15  2  0  0  0
 15 16  1  0  0  0
 16 17  2  0  0  0
 17 18  1  0  0  0
 18 19  2  0  0  0
 19 20  1  0  0  0
 20 21  2  0  0  0
 10  2  1  0  0  0
 21 12  1  0  0  0
  7  4  1  0  0  0
 21 16  1  0  0  0
 27 22  1  0  0  0
  3 11  1  0  0  0
M  END
> <minimizedAffinity>
-8.61107

> <CNNscore>
0.7137240767

> <CNNaffinity>
6.1739716530

> <CNN_VS>
4.4065122604

> <CNNaffinity_variance>
0.3097467422

$$$$



 28 32  0  0  0  0  0  0  0  0999 V2000
    4.9415   -3.2239   21.3827 O   0  0  0  0  0  0  0  0  0  0  0  0
    6.0039   -2.4893   22.1454 C   0  0  0  0  0  0  0  0  0  0  0  0
    7.2497   -3.0917   22.7243 N   0  0  0  0  0  0  0  0  0  0  0  0
    8.0227   -1.9981   23.3999 C   0  0  0  0  0  0  0  0  0  0  0  0
    8.9474   -3.1457   23.6786 C   0  0  0  0  0  0  0  0  0  0  0  0
    9.8765   -2.2201   24.4067 C   0  0  0  0  0  0  0  0  0  0  0  0
    8.9518   -1.0725   24.1279 C   0  0  0  0  0  0  0  0  0  0  0  0
    7.2546   -0.7198   23.2385 C   0  0  0  0  0  0  0  0  0  0  0  0
    7.6627    0.6259   23.7607 O   0  0  0  0  0  0  0  0  0  0  0  0
    6.0069   -1.0233   22.4632 N   0  0  0  0  0  0  0  0  0  0  0  0
    7.5136   -4.0386   22.6704 H   0  0  0  0  0  0  0  0  0  0  0  0
    4.9482   -0.0346   22.0740 C   0  0  0  0  0  0  0  0  0  0  0  0
    4.0198    0.5186   23.1142 C   0  0  0  0  0  0  0  0  0  0  0  0
    2.9611    1.5073   22.7250 N   0  0  0  0  0  0  0  0  0  0  0  0
    2.8307    1.9429   21.2956 C   0  0  0  0  0  0  0  0  0  0  0  0
    3.7592    1.3898   20.2553 C   0  0  0  0  0  0  0  0  0  0  0  0
    3.6288    1.8254   18.8259 C   0  0  0  0  0  0  0  0  0  0  0  0
    4.5572    1.2722   17.7857 C   0  0  0  0  0  0  0  0  0  0  0  0
    5.6160    0.2835   18.1749 C   0  0  0  0  0  0  0  0  0  0  0  0
    5.7463   -0.1521   19.6043 C   0  0  0  0  0  0  0  0  0  0  0  0
    4.8179    0.4010   20.6445 C   0  0  0  0  0  0  0  0  0  0  0  0
   11.1875   -2.3773   25.1186 C   0  0  0  0  0  0  0  0  0  0  0  0
   11.3118   -3.3473   26.2560 C   0  0  0  0  0  0  0  0  0  0  0  0
   12.6227   -3.5044   26.9678 C   0  0  0  0  0  0  0  0  0  0  0  0
   13.8094   -2.6915   26.5422 C   0  0  0  0  0  0  0  0  0  0  0  0
   13.6851   -1.7215   25.4049 C   0  0  0  0  0  0  0  0  0  0  0  0
   12.3741   -1.5644   24.6930 C   0  0  0  0  0  0  0  0  0  0  0  0
   12.2498   -0.5944   23.5557 Cl  0  0  0  0  0  0  0  0  0  0  0  0
  1  2  2  0  0  0
  2  3  1  0  0  0
  3  4  1  0  0  0
  4  5  1  0  0  0
  5  6  1  0  0  0
  6 22  1  0  0  0
 22 23  2  0  0  0
 23 24  1  0  0  0
 24 25  2  0  0  0
 25 26  1  0  0  0
 26 27  2  0  0  0
 27 28  1  0  0  0
  6  7  1  0  0  0
  4  8  1  0  0  0
  8  9  2  0  0  0
  8 10  1  0  0  0
 10 12  1  0  0  0
 12 13  2  0  0  0
 13 14  1  0  0  0
 14 15  2  0  0  0
 15 16  1  0  0  0
 16 17  2  0  0  0
 17 18  1  0  0  0
 18 19  2  0  0  0
 19 20  1  0  0  0
 20 21  2  0  0  0
 10  2  1  0  0  0
 21 12  1  0  0  0
  7  4  1  0  0  0
 21 16  1  0  0  0
 27 22  1  0  0  0
  3 11  1  0  0  0
M  END
> <minimizedAffinity>
-8.35473

> <CNNscore>
0.6836169958

> <CNNaffinity>
6.2280631065

> <CNN_VS>
4.2576098442

> <CNNaffinity_variance>
0.3655317426

$$$$



 28 32  0  0  0  0  0  0  0  0999 V2000
    4.8186    1.8976   23.2794 O   0  0  0  0  0  0  0  0  0  0  0  0
    6.0515    1.0732   23.0552 C   0  0  0  0  0  0  0  0  0  0  0  0
    7.0218    0.6330   24.1111 N   0  0  0  0  0  0  0  0  0  0  0  0
    8.1006   -0.1680   23.4442 C   0  0  0  0  0  0  0  0  0  0  0  0
    8.5932   -0.2428   24.8590 C   0  0  0  0  0  0  0  0  0  0  0  0
    9.7635   -1.0656   24.4079 C   0  0  0  0  0  0  0  0  0  0  0  0
    9.2708   -0.9907   22.9932 C   0  0  0  0  0  0  0  0  0  0  0  0
    7.7970   -0.2227   21.9763 C   0  0  0  0  0  0  0  0  0  0  0  0
    8.6161   -0.9219   20.9321 O   0  0  0  0  0  0  0  0  0  0  0  0
    6.5306    0.5443   21.7358 N   0  0  0  0  0  0  0  0  0  0  0  0
    6.9612    0.8344   25.0728 H   0  0  0  0  0  0  0  0  0  0  0  0
    5.8610    0.7470   20.4090 C   0  0  0  0  0  0  0  0  0  0  0  0
    6.4363    0.1182   19.1747 C   0  0  0  0  0  0  0  0  0  0  0  0
    5.7667    0.3209   17.8479 N   0  0  0  0  0  0  0  0  0  0  0  0
    4.5216    1.1522   17.7554 C   0  0  0  0  0  0  0  0  0  0  0  0
    3.9462    1.7810   18.9897 C   0  0  0  0  0  0  0  0  0  0  0  0
    2.7011    2.6124   18.8972 C   0  0  0  0  0  0  0  0  0  0  0  0
    2.1257    3.2411   20.1315 C   0  0  0  0  0  0  0  0  0  0  0  0
    2.7954    3.0385   21.4583 C   0  0  0  0  0  0  0  0  0  0  0  0
    4.0404    2.2071   21.5509 C   0  0  0  0  0  0  0  0  0  0  0  0
    4.6158    1.5784   20.3165 C   0  0  0  0  0  0  0  0  0  0  0  0
   10.9394   -1.7003   25.0895 C   0  0  0  0  0  0  0  0  0  0  0  0
   10.7391   -2.8968   25.9716 C   0  0  0  0  0  0  0  0  0  0  0  0
   11.9150   -3.5314   26.6531 C   0  0  0  0  0  0  0  0  0  0  0  0
   13.2912   -2.9695   26.4525 C   0  0  0  0  0  0  0  0  0  0  0  0
   13.4915   -1.7729   25.5704 C   0  0  0  0  0  0  0  0  0  0  0  0
   12.3156   -1.1383   24.8889 C   0  0  0  0  0  0  0  0  0  0  0  0
   12.5159    0.0582   24.0068 Cl  0  0  0  0  0  0  0  0  0  0  0  0
  1  2  2  0  0  0
  2  3  1  0  0  0
  3  4  1  0  0  0
  4  5  1  0  0  0
  5  6  1  0  0  0
  6 22  1  0  0  0
 22 23  2  0  0  0
 23 24  1  0  0  0
 24 25  2  0  0  0
 25 26  1  0  0  0
 26 27  2  0  0  0
 27 28  1  0  0  0
  6  7  1  0  0  0
  4  8  1  0  0  0
  8  9  2  0  0  0
  8 10  1  0  0  0
 10 12  1  0  0  0
 12 13  2  0  0  0
 13 14  1  0  0  0
 14 15  2  0  0  0
 15 16  1  0  0  0
 16 17  2  0  0  0
 17 18  1  0  0  0
 18 19  2  0  0  0
 19 20  1  0  0  0
 20 21  2  0  0  0
 10  2  1  0  0  0
 21 12  1  0  0  0
  7  4  1  0  0  0
 21 16  1  0  0  0
 27 22  1  0  0  0
  3 11  1  0  0  0
M  END
> <minimizedAffinity>
-8.94433

> <CNNscore>
0.6601989865

> <CNNaffinity>
6.1202635765

> <CNN_VS>
4.0405917168

> <CNNaffinity_variance>
0.2685158849

$$$$



 28 32  0  0  0  0  0  0  0  0999 V2000
    4.8186   -3.2131   21.4996 O   0  0  0  0  0  0  0  0  0  0  0  0
    5.9093   -2.4738   22.2164 C   0  0  0  0  0  0  0  0  0  0  0  0
    7.1546   -3.0803   22.7921 N   0  0  0  0  0  0  0  0  0  0  0  0
    7.9611   -1.9796   23.4149 C   0  0  0  0  0  0  0  0  0  0  0  0
    8.8694   -3.1349   23.7154 C   0  0  0  0  0  0  0  0  0  0  0  0
    9.8298   -2.2034   24.3935 C   0  0  0  0  0  0  0  0  0  0  0  0
    8.9215   -1.0481   24.0930 C   0  0  0  0  0  0  0  0  0  0  0  0
    7.2143   -0.6928   23.2241 C   0  0  0  0  0  0  0  0  0  0  0  0
    7.6577    0.6616   23.6920 O   0  0  0  0  0  0  0  0  0  0  0  0
    5.9462   -0.9982   22.4835 N   0  0  0  0  0  0  0  0  0  0  0  0
    7.3996   -4.0335   22.7657 H   0  0  0  0  0  0  0  0  0  0  0  0
    4.8989   -0.0028   22.0806 C   0  0  0  0  0  0  0  0  0  0  0  0
    3.9657    0.5622   23.1100 C   0  0  0  0  0  0  0  0  0  0  0  0
    2.9184    1.5576   22.7071 N   0  0  0  0  0  0  0  0  0  0  0  0
    2.8042    1.9879   21.2748 C   0  0  0  0  0  0  0  0  0  0  0  0
    3.7374    1.4229   20.2452 C   0  0  0  0  0  0  0  0  0  0  0  0
    3.6232    1.8532   18.8128 C   0  0  0  0  0  0  0  0  0  0  0  0
    4.5564    1.2881   17.7833 C   0  0  0  0  0  0  0  0  0  0  0  0
    5.6037    0.2927   18.1862 C   0  0  0  0  0  0  0  0  0  0  0  0
    5.7179   -0.1376   19.6186 C   0  0  0  0  0  0  0  0  0  0  0  0
    4.7847    0.4275   20.6481 C   0  0  0  0  0  0  0  0  0  0  0  0
   11.1512   -2.3618   25.0856 C   0  0  0  0  0  0  0  0  0  0  0  0
   12.2552   -1.3794   24.8283 C   0  0  0  0  0  0  0  0  0  0  0  0
   13.5765   -1.5379   25.5204 C   0  0  0  0  0  0  0  0  0  0  0  0
   13.7938   -2.6788   26.4697 C   0  0  0  0  0  0  0  0  0  0  0  0
   12.6899   -3.6612   26.7270 C   0  0  0  0  0  0  0  0  0  0  0  0
   11.3685   -3.5027   26.0349 C   0  0  0  0  0  0  0  0  0  0  0  0
   10.2646   -4.4850   26.2922 Cl  0  0  0  0  0  0  0  0  0  0  0  0
  1  2  2  0  0  0
  2  3  1  0  0  0
  3  4  1  0  0  0
  4  5  1  0  0  0
  5  6  1  0  0  0
  6 22  1  0  0  0
 22 23  2  0  0  0
 23 24  1  0  0  0
 24 25  2  0  0  0
 25 26  1  0  0  0
 26 27  2  0  0  0
 27 28  1  0  0  0
  6  7  1  0  0  0
  4  8  1  0  0  0
  8  9  2  0  0  0
  8 10  1  0  0  0
 10 12  1  0  0  0
 12 13  2  0  0  0
 13 14  1  0  0  0
 14 15  2  0  0  0
 15 16  1  0  0  0
 16 17  2  0  0  0
 17 18  1  0  0  0
 18 19  2  0  0  0
 19 20  1  0  0  0
 20 21  2  0  0  0
 10  2  1  0  0  0
 21 12  1  0  0  0
  7  4  1  0  0  0
 21 16  1  0  0  0
 27 22  1  0  0  0
  3 11  1  0  0  0
M  END
> <minimizedAffinity>
-8.36966

> <CNNscore>
0.6478931308

> <CNNaffinity>
6.1207613945

> <CNN_VS>
3.9655992985

> <CNNaffinity_variance>
0.3954321742

$$$$



 28 32  0  0  0  0  0  0  0  0999 V2000
    4.6317   -1.4083   20.4566 O   0  0  0  0  0  0  0  0  0  0  0  0
    5.5595   -1.1010   21.5945 C   0  0  0  0  0  0  0  0  0  0  0  0
    6.9200   -1.6955   21.8079 N   0  0  0  0  0  0  0  0  0  0  0  0
    7.4910   -1.1072   23.0641 C   0  0  0  0  0  0  0  0  0  0  0  0
    8.6314   -2.0053   22.6860 C   0  0  0  0  0  0  0  0  0  0  0  0
    9.3901   -1.5519   23.8980 C   0  0  0  0  0  0  0  0  0  0  0  0
    8.2497   -0.6538   24.2760 C   0  0  0  0  0  0  0  0  0  0  0  0
    6.4833   -0.1492   23.6270 C   0  0  0  0  0  0  0  0  0  0  0  0
    6.6417    0.6624   24.8784 O   0  0  0  0  0  0  0  0  0  0  0  0
    5.2896   -0.1454   22.7188 N   0  0  0  0  0  0  0  0  0  0  0  0
    7.3609   -2.3558   21.2257 H   0  0  0  0  0  0  0  0  0  0  0  0
    4.0445    0.6708   22.9025 C   0  0  0  0  0  0  0  0  0  0  0  0
    3.3045    0.6266   24.2064 C   0  0  0  0  0  0  0  0  0  0  0  0
    2.0594    1.4428   24.3902 N   0  0  0  0  0  0  0  0  0  0  0  0
    1.5544    2.3030   23.2700 C   0  0  0  0  0  0  0  0  0  0  0  0
    2.2945    2.3472   21.9660 C   0  0  0  0  0  0  0  0  0  0  0  0
    1.7895    3.2075   20.8458 C   0  0  0  0  0  0  0  0  0  0  0  0
    2.5296    3.2516   19.5418 C   0  0  0  0  0  0  0  0  0  0  0  0
    3.7746    2.4354   19.3581 C   0  0  0  0  0  0  0  0  0  0  0  0
    4.2796    1.5752   20.4783 C   0  0  0  0  0  0  0  0  0  0  0  0
    3.5395    1.5310   21.7822 C   0  0  0  0  0  0  0  0  0  0  0  0
   10.7330   -1.8665   24.4877 C   0  0  0  0  0  0  0  0  0  0  0  0
   10.8269   -2.5002   25.8440 C   0  0  0  0  0  0  0  0  0  0  0  0
   12.1699   -2.8147   26.4335 C   0  0  0  0  0  0  0  0  0  0  0  0
   13.4189   -2.4955   25.6667 C   0  0  0  0  0  0  0  0  0  0  0  0
   13.3251   -1.8618   24.3104 C   0  0  0  0  0  0  0  0  0  0  0  0
   11.9821   -1.5473   23.7209 C   0  0  0  0  0  0  0  0  0  0  0  0
   11.8882   -0.9136   22.3646 Cl  0  0  0  0  0  0  0  0  0  0  0  0
  1  2  2  0  0  0
  2  3  1  0  0  0
  3  4  1  0  0  0
  4  5  1  0  0  0
  5  6  1  0  0  0
  6 22  1  0  0  0
 22 23  2  0  0  0
 23 24  1  0  0  0
 24 25  2  0  0  0
 25 26  1  0  0  0
 26 27  2  0  0  0
 27 28  1  0  0  0
  6  7  1  0  0  0
  4  8  1  0  0  0
  8  9  2  0  0  0
  8 10  1  0  0  0
 10 12  1  0  0  0
 12 13  2  0  0  0
 13 14  1  0  0  0
 14 15  2  0  0  0
 15 16  1  0  0  0
 16 17  2  0  0  0
 17 18  1  0  0  0
 18 19  2  0  0  0
 19 20  1  0  0  0
 20 21  2  0  0  0
 10  2  1  0  0  0
 21 12  1  0  0  0
  7  4  1  0  0  0
 21 16  1  0  0  0
 27 22  1  0  0  0
  3 11  1  0  0  0
M  END
> <minimizedAffinity>
-6.65046

> <CNNscore>
0.6247390509

> <CNNaffinity>
6.1091017723

> <CNN_VS>
3.8165943623

> <CNNaffinity_variance>
0.5488029718

$$$$



 28 32  0  0  0  0  0  0  0  0999 V2000
    4.8272    1.7680   23.4219 O   0  0  0  0  0  0  0  0  0  0  0  0
    6.0707    0.9619   23.1897 C   0  0  0  0  0  0  0  0  0  0  0  0
    7.0487    0.5273   24.2407 N   0  0  0  0  0  0  0  0  0  0  0  0
    8.1370   -0.2543   23.5664 C   0  0  0  0  0  0  0  0  0  0  0  0
    8.6332   -0.3325   24.9798 C   0  0  0  0  0  0  0  0  0  0  0  0
    9.8136   -1.1363   24.5208 C   0  0  0  0  0  0  0  0  0  0  0  0
    9.3173   -1.0581   23.1075 C   0  0  0  0  0  0  0  0  0  0  0  0
    7.8315   -0.3028   22.0986 C   0  0  0  0  0  0  0  0  0  0  0  0
    8.6580   -0.9835   21.0481 O   0  0  0  0  0  0  0  0  0  0  0  0
    6.5545    0.4488   21.8658 N   0  0  0  0  0  0  0  0  0  0  0  0
    6.9872    0.7211   25.2040 H   0  0  0  0  0  0  0  0  0  0  0  0
    5.8797    0.6518   20.5416 C   0  0  0  0  0  0  0  0  0  0  0  0
    6.3699   -0.0834   19.3296 C   0  0  0  0  0  0  0  0  0  0  0  0
    5.6951    0.1196   18.0054 N   0  0  0  0  0  0  0  0  0  0  0  0
    4.5302    1.0577   17.8932 C   0  0  0  0  0  0  0  0  0  0  0  0
    4.0399    1.7930   19.1053 C   0  0  0  0  0  0  0  0  0  0  0  0
    2.8749    2.7312   18.9932 C   0  0  0  0  0  0  0  0  0  0  0  0
    2.3847    3.4664   20.2053 C   0  0  0  0  0  0  0  0  0  0  0  0
    3.0595    3.2634   21.5295 C   0  0  0  0  0  0  0  0  0  0  0  0
    4.2245    2.3252   21.6416 C   0  0  0  0  0  0  0  0  0  0  0  0
    4.7147    1.5900   20.4295 C   0  0  0  0  0  0  0  0  0  0  0  0
   10.9991   -1.7599   25.1958 C   0  0  0  0  0  0  0  0  0  0  0  0
   12.3401   -1.0915   25.1250 C   0  0  0  0  0  0  0  0  0  0  0  0
   13.5255   -1.7152   25.8001 C   0  0  0  0  0  0  0  0  0  0  0  0
   13.3700   -3.0074   26.5459 C   0  0  0  0  0  0  0  0  0  0  0  0
   12.0290   -3.6758   26.6167 C   0  0  0  0  0  0  0  0  0  0  0  0
   10.8436   -3.0521   25.9417 C   0  0  0  0  0  0  0  0  0  0  0  0
    9.5026   -3.7205   26.0125 Cl  0  0  0  0  0  0  0  0  0  0  0  0
  1  2  2  0  0  0
  2  3  1  0  0  0
  3  4  1  0  0  0
  4  5  1  0  0  0
  5  6  1  0  0  0
  6 22  1  0  0  0
 22 23  2  0  0  0
 23 24  1  0  0  0
 24 25  2  0  0  0
 25 26  1  0  0  0
 26 27  2  0  0  0
 27 28  1  0  0  0
  6  7  1  0  0  0
  4  8  1  0  0  0
  8  9  2  0  0  0
  8 10  1  0  0  0
 10 12  1  0  0  0
 12 13  2  0  0  0
 13 14  1  0  0  0
 14 15  2  0  0  0
 15 16  1  0  0  0
 16 17  2  0  0  0
 17 18  1  0  0  0
 18 19  2  0  0  0
 19 20  1  0  0  0
 20 21  2  0  0  0
 10  2  1  0  0  0
 21 12  1  0  0  0
  7  4  1  0  0  0
 21 16  1  0  0  0
 27 22  1  0  0  0
  3 11  1  0  0  0
M  END
> <minimizedAffinity>
-8.75712

> <CNNscore>
0.5719919205

> <CNNaffinity>
5.9317679405

> <CNN_VS>
3.3929233551

> <CNNaffinity_variance>
0.2014523000

$$$$
