


 28 32  0  0  0  0  0  0  0  0999 V2000
   -4.9918   -3.7550  -19.1974 O   0  0  0  0  0  0  0  0  0  0  0  0
   -5.4945   -3.4454  -20.5763 C   0  0  0  0  0  0  0  0  0  0  0  0
   -6.0906   -4.4292  -21.5390 N   0  0  0  0  0  0  0  0  0  0  0  0
   -6.4539   -3.6894  -22.7923 C   0  0  0  0  0  0  0  0  0  0  0  0
   -6.8996   -5.0643  -23.1937 C   0  0  0  0  0  0  0  0  0  0  0  0
   -7.3379   -4.5329  -24.5263 C   0  0  0  0  0  0  0  0  0  0  0  0
   -6.8922   -3.1582  -24.1248 C   0  0  0  0  0  0  0  0  0  0  0  0
   -6.0822   -2.2484  -22.6042 C   0  0  0  0  0  0  0  0  0  0  0  0
   -6.2705   -1.1509  -23.6092 O   0  0  0  0  0  0  0  0  0  0  0  0
   -5.4893   -2.0976  -21.2346 N   0  0  0  0  0  0  0  0  0  0  0  0
   -6.2206   -5.3915  -21.3767 H   0  0  0  0  0  0  0  0  0  0  0  0
   -4.9805   -0.8228  -20.6297 C   0  0  0  0  0  0  0  0  0  0  0  0
   -5.3271   -0.4745  -19.2124 C   0  0  0  0  0  0  0  0  0  0  0  0
   -4.8183    0.8003  -18.6075 N   0  0  0  0  0  0  0  0  0  0  0  0
   -3.9629    1.7269  -19.4197 C   0  0  0  0  0  0  0  0  0  0  0  0
   -3.6163    1.3786  -20.8370 C   0  0  0  0  0  0  0  0  0  0  0  0
   -2.7609    2.3052  -21.6492 C   0  0  0  0  0  0  0  0  0  0  0  0
   -2.4143    1.9569  -23.0664 C   0  0  0  0  0  0  0  0  0  0  0  0
   -2.9231    0.6821  -23.6714 C   0  0  0  0  0  0  0  0  0  0  0  0
   -3.7785   -0.2444  -22.8592 C   0  0  0  0  0  0  0  0  0  0  0  0
   -4.1251    0.1038  -21.4420 C   0  0  0  0  0  0  0  0  0  0  0  0
   -7.9631   -5.1295  -25.7524 C   0  0  0  0  0  0  0  0  0  0  0  0
   -7.1186   -5.8925  -26.7294 C   0  0  0  0  0  0  0  0  0  0  0  0
   -7.7438   -6.4891  -27.9554 C   0  0  0  0  0  0  0  0  0  0  0  0
   -9.2136   -6.3227  -28.2044 C   0  0  0  0  0  0  0  0  0  0  0  0
  -10.0582   -5.5597  -27.2274 C   0  0  0  0  0  0  0  0  0  0  0  0
   -9.4329   -4.9631  -26.0014 C   0  0  0  0  0  0  0  0  0  0  0  0
  -10.2774   -4.2001  -25.0244 Cl  0  0  0  0  0  0  0  0  0  0  0  0
  1  2  2  0  0  0
  2  3  1  0  0  0
  3  4  1  0  0  0
  4  5  1  0  0  0
  5  6  1  0  0  0
  6 22  1  0  0  0
 22 23  2  0  0  0
 23 24  1  0  0  0
 24 25  2  0  0  0
 25 26  1  0  0  0
 26 27  2  0  0  0
 27 28  1  0  0  0
  6  7  1  0  0  0
  4  8  1  0  0  0
  8  9  2  0  0  0
  8 10  1  0  0  0
 10 12  1  0  0  0
 12 13  2  0  0  0
 13 14  1  0  0  0
 14 15  2  0  0  0
 15 16  1  0  0  0
 16 17  2  0  0  0
 17 18  1  0  0  0
 18 19  2  0  0  0
 19 20  1  0  0  0
 20 21  2  0  0  0
 10  2  1  0  0  0
 21 12  1  0  0  0
  7  4  1  0  0  0
 21 16  1  0  0  0
 27 22  1  0  0  0
  3 11  1  0  0  0
M  END
> <minimizedAffinity>
-7.15396

> <CNNscore>
0.7322010398

> <CNNaffinity>
5.7976775169

> <CNN_VS>
4.2450656891

> <CNNaffinity_variance>
0.1615650952

$$$$



 28 32  0  0  0  0  0  0  0  0999 V2000
   -6.8222   -0.8662  -18.5124 O   0  0  0  0  0  0  0  0  0  0  0  0
   -5.7733   -0.3911  -19.4737 C   0  0  0  0  0  0  0  0  0  0  0  0
   -4.6557    0.5590  -19.1604 N   0  0  0  0  0  0  0  0  0  0  0  0
   -3.8496    0.7547  -20.4102 C   0  0  0  0  0  0  0  0  0  0  0  0
   -3.0738    1.6480  -19.4882 C   0  0  0  0  0  0  0  0  0  0  0  0
   -2.1347    1.9875  -20.6076 C   0  0  0  0  0  0  0  0  0  0  0  0
   -2.9105    1.0942  -21.5295 C   0  0  0  0  0  0  0  0  0  0  0  0
   -4.4690   -0.0746  -21.4958 C   0  0  0  0  0  0  0  0  0  0  0  0
   -3.9845   -0.1776  -22.9117 O   0  0  0  0  0  0  0  0  0  0  0  0
   -5.6580   -0.7827  -20.9171 N   0  0  0  0  0  0  0  0  0  0  0  0
   -4.4818    0.9803  -18.2877 H   0  0  0  0  0  0  0  0  0  0  0  0
   -6.5712   -1.7182  -21.6526 C   0  0  0  0  0  0  0  0  0  0  0  0
   -6.1644   -3.1451  -21.8723 C   0  0  0  0  0  0  0  0  0  0  0  0
   -7.0776   -4.0806  -22.6078 N   0  0  0  0  0  0  0  0  0  0  0  0
   -8.3976   -3.5891  -23.1236 C   0  0  0  0  0  0  0  0  0  0  0  0
   -8.8044   -2.1621  -22.9039 C   0  0  0  0  0  0  0  0  0  0  0  0
  -10.1244   -1.6706  -23.4197 C   0  0  0  0  0  0  0  0  0  0  0  0
  -10.5311   -0.2436  -23.2000 C   0  0  0  0  0  0  0  0  0  0  0  0
   -9.6179    0.6918  -22.4645 C   0  0  0  0  0  0  0  0  0  0  0  0
   -8.2979    0.2003  -21.9487 C   0  0  0  0  0  0  0  0  0  0  0  0
   -7.8912   -1.2266  -22.1684 C   0  0  0  0  0  0  0  0  0  0  0  0
   -0.9220    2.8593  -20.7470 C   0  0  0  0  0  0  0  0  0  0  0  0
   -1.0770    4.3466  -20.8649 C   0  0  0  0  0  0  0  0  0  0  0  0
    0.1357    5.2183  -21.0044 C   0  0  0  0  0  0  0  0  0  0  0  0
    1.5034    4.6028  -21.0259 C   0  0  0  0  0  0  0  0  0  0  0  0
    1.6584    3.1155  -20.9080 C   0  0  0  0  0  0  0  0  0  0  0  0
    0.4457    2.2438  -20.7686 C   0  0  0  0  0  0  0  0  0  0  0  0
    0.6007    0.7565  -20.6507 Cl  0  0  0  0  0  0  0  0  0  0  0  0
  1  2  2  0  0  0
  2  3  1  0  0  0
  3  4  1  0  0  0
  4  5  1  0  0  0
  5  6  1  0  0  0
  6 22  1  0  0  0
 22 23  2  0  0  0
 23 24  1  0  0  0
 24 25  2  0  0  0
 25 26  1  0  0  0
 26 27  2  0  0  0
 27 28  1  0  0  0
  6  7  1  0  0  0
  4  8  1  0  0  0
  8  9  2  0  0  0
  8 10  1  0  0  0
 10 12  1  0  0  0
 12 13  2  0  0  0
 13 14  1  0  0  0
 14 15  2  0  0  0
 15 16  1  0  0  0
 16 17  2  0  0  0
 17 18  1  0  0  0
 18 19  2  0  0  0
 19 20  1  0  0  0
 20 21  2  0  0  0
 10  2  1  0  0  0
 21 12  1  0  0  0
  7  4  1  0  0  0
 21 16  1  0  0  0
 27 22  1  0  0  0
  3 11  1  0  0  0
M  END
> <minimizedAffinity>
-7.39455

> <CNNscore>
0.5668764114

> <CNNaffinity>
5.6466774940

> <CNN_VS>
3.2009682655

> <CNNaffinity_variance>
0.2513987422

$$$$



 28 32  0  0  0  0  0  0  0  0999 V2000
   -8.7688   -3.9067  -23.8879 O   0  0  0  0  0  0  0  0  0  0  0  0
   -8.2578   -2.6478  -23.2521 C   0  0  0  0  0  0  0  0  0  0  0  0
   -6.8182   -2.3062  -23.0055 N   0  0  0  0  0  0  0  0  0  0  0  0
   -6.7674   -0.9569  -22.3522 C   0  0  0  0  0  0  0  0  0  0  0  0
   -5.2967   -1.2461  -22.4079 C   0  0  0  0  0  0  0  0  0  0  0  0
   -5.0123    0.0742  -21.7553 C   0  0  0  0  0  0  0  0  0  0  0  0
   -6.4831    0.3634  -21.6996 C   0  0  0  0  0  0  0  0  0  0  0  0
   -8.1756   -0.4647  -22.1950 C   0  0  0  0  0  0  0  0  0  0  0  0
   -8.5900    0.8431  -21.5882 O   0  0  0  0  0  0  0  0  0  0  0  0
   -9.0968   -1.5097  -22.7512 N   0  0  0  0  0  0  0  0  0  0  0  0
   -6.0429   -2.8687  -23.2325 H   0  0  0  0  0  0  0  0  0  0  0  0
  -10.5939   -1.4306  -22.7982 C   0  0  0  0  0  0  0  0  0  0  0  0
  -11.4196   -2.6387  -22.4686 C   0  0  0  0  0  0  0  0  0  0  0  0
  -12.9168   -2.5596  -22.5156 N   0  0  0  0  0  0  0  0  0  0  0  0
  -13.5883   -1.2723  -22.8923 C   0  0  0  0  0  0  0  0  0  0  0  0
  -12.7627   -0.0641  -23.2219 C   0  0  0  0  0  0  0  0  0  0  0  0
  -13.4342    1.2232  -23.5986 C   0  0  0  0  0  0  0  0  0  0  0  0
  -12.6086    2.4313  -23.9282 C   0  0  0  0  0  0  0  0  0  0  0  0
  -11.1114    2.3522  -23.8812 C   0  0  0  0  0  0  0  0  0  0  0  0
  -10.4399    1.0649  -23.5045 C   0  0  0  0  0  0  0  0  0  0  0  0
  -11.2655   -0.1432  -23.1749 C   0  0  0  0  0  0  0  0  0  0  0  0
   -3.7712    0.8032  -21.3333 C   0  0  0  0  0  0  0  0  0  0  0  0
   -2.7532    1.2070  -22.3583 C   0  0  0  0  0  0  0  0  0  0  0  0
   -1.5121    1.9359  -21.9362 C   0  0  0  0  0  0  0  0  0  0  0  0
   -1.2889    2.2612  -20.4890 C   0  0  0  0  0  0  0  0  0  0  0  0
   -2.3069    1.8575  -19.4639 C   0  0  0  0  0  0  0  0  0  0  0  0
   -3.5480    1.1285  -19.8860 C   0  0  0  0  0  0  0  0  0  0  0  0
   -4.5659    0.7248  -18.8610 Cl  0  0  0  0  0  0  0  0  0  0  0  0
  1  2  2  0  0  0
  2  3  1  0  0  0
  3  4  1  0  0  0
  4  5  1  0  0  0
  5  6  1  0  0  0
  6 22  1  0  0  0
 22 23  2  0  0  0
 23 24  1  0  0  0
 24 25  2  0  0  0
 25 26  1  0  0  0
 26 27  2  0  0  0
 27 28  1  0  0  0
  6  7  1  0  0  0
  4  8  1  0  0  0
  8  9  2  0  0  0
  8 10  1  0  0  0
 10 12  1  0  0  0
 12 13  2  0  0  0
 13 14  1  0  0  0
 14 15  2  0  0  0
 15 16  1  0  0  0
 16 17  2  0  0  0
 17 18  1  0  0  0
 18 19  2  0  0  0
 19 20  1  0  0  0
 20 21  2  0  0  0
 10  2  1  0  0  0
 21 12  1  0  0  0
  7  4  1  0  0  0
 21 16  1  0  0  0
 27 22  1  0  0  0
  3 11  1  0  0  0
M  END
> <minimizedAffinity>
-7.73978

> <CNNscore>
0.5505000353

> <CNNaffinity>
5.7962689400

> <CNN_VS>
3.1908462048

> <CNNaffinity_variance>
0.3102340996

$$$$



 28 32  0  0  0  0  0  0  0  0999 V2000
  -12.2676   -3.6434  -22.7261 O   0  0  0  0  0  0  0  0  0  0  0  0
  -11.7877   -2.2661  -23.0764 C   0  0  0  0  0  0  0  0  0  0  0  0
  -12.6440   -1.0419  -23.2115 N   0  0  0  0  0  0  0  0  0  0  0  0
  -11.7528    0.1096  -23.5716 C   0  0  0  0  0  0  0  0  0  0  0  0
  -13.0674    0.8312  -23.5401 C   0  0  0  0  0  0  0  0  0  0  0  0
  -12.3733    2.1114  -23.8997 C   0  0  0  0  0  0  0  0  0  0  0  0
  -11.0587    1.3898  -23.9313 C   0  0  0  0  0  0  0  0  0  0  0  0
  -10.3458   -0.4029  -23.6591 C   0  0  0  0  0  0  0  0  0  0  0  0
   -9.1305    0.4102  -23.9938 O   0  0  0  0  0  0  0  0  0  0  0  0
  -10.3673   -1.8711  -23.3530 N   0  0  0  0  0  0  0  0  0  0  0  0
  -13.6196   -1.0014  -23.0859 H   0  0  0  0  0  0  0  0  0  0  0  0
   -9.1774   -2.7841  -23.3279 C   0  0  0  0  0  0  0  0  0  0  0  0
   -8.0644   -2.5390  -22.3527 C   0  0  0  0  0  0  0  0  0  0  0  0
   -6.8745   -3.4520  -22.3276 N   0  0  0  0  0  0  0  0  0  0  0  0
   -6.7977   -4.6101  -23.2777 C   0  0  0  0  0  0  0  0  0  0  0  0
   -7.9107   -4.8553  -24.2529 C   0  0  0  0  0  0  0  0  0  0  0  0
   -7.8339   -6.0135  -25.2030 C   0  0  0  0  0  0  0  0  0  0  0  0
   -8.9469   -6.2586  -26.1782 C   0  0  0  0  0  0  0  0  0  0  0  0
  -10.1367   -5.3456  -26.2033 C   0  0  0  0  0  0  0  0  0  0  0  0
  -10.2136   -4.1875  -25.2532 C   0  0  0  0  0  0  0  0  0  0  0  0
   -9.1006   -3.9423  -24.2780 C   0  0  0  0  0  0  0  0  0  0  0  0
  -12.8122    3.5269  -24.1317 C   0  0  0  0  0  0  0  0  0  0  0  0
  -12.7721    4.1077  -25.5141 C   0  0  0  0  0  0  0  0  0  0  0  0
  -13.2110    5.5231  -25.7459 C   0  0  0  0  0  0  0  0  0  0  0  0
  -13.6900    6.3579  -24.5953 C   0  0  0  0  0  0  0  0  0  0  0  0
  -13.7301    5.7771  -23.2129 C   0  0  0  0  0  0  0  0  0  0  0  0
  -13.2912    4.3616  -22.9811 C   0  0  0  0  0  0  0  0  0  0  0  0
  -13.3313    3.7809  -21.5987 Cl  0  0  0  0  0  0  0  0  0  0  0  0
  1  2  2  0  0  0
  2  3  1  0  0  0
  3  4  1  0  0  0
  4  5  1  0  0  0
  5  6  1  0  0  0
  6 22  1  0  0  0
 22 23  2  0  0  0
 23 24  1  0  0  0
 24 25  2  0  0  0
 25 26  1  0  0  0
 26 27  2  0  0  0
 27 28  1  0  0  0
  6  7  1  0  0  0
  4  8  1  0  0  0
  8  9  2  0  0  0
  8 10  1  0  0  0
 10 12  1  0  0  0
 12 13  2  0  0  0
 13 14  1  0  0  0
 14 15  2  0  0  0
 15 16  1  0  0  0
 16 17  2  0  0  0
 17 18  1  0  0  0
 18 19  2  0  0  0
 19 20  1  0  0  0
 20 21  2  0  0  0
 10  2  1  0  0  0
 21 12  1  0  0  0
  7  4  1  0  0  0
 21 16  1  0  0  0
 27 22  1  0  0  0
  3 11  1  0  0  0
M  END
> <minimizedAffinity>
-7.65179

> <CNNscore>
0.4768019021

> <CNNaffinity>
5.8748044968

> <CNN_VS>
2.8011178970

> <CNNaffinity_variance>
0.0969278812

$$$$



 28 32  0  0  0  0  0  0  0  0999 V2000
   -7.2697   -0.3924  -19.0660 O   0  0  0  0  0  0  0  0  0  0  0  0
   -7.0472   -0.9494  -20.4409 C   0  0  0  0  0  0  0  0  0  0  0  0
   -7.8319   -2.0555  -21.0817 N   0  0  0  0  0  0  0  0  0  0  0  0
   -7.2705   -2.2878  -22.4532 C   0  0  0  0  0  0  0  0  0  0  0  0
   -8.3534   -3.3256  -22.4640 C   0  0  0  0  0  0  0  0  0  0  0  0
   -7.9565   -3.7251  -23.8543 C   0  0  0  0  0  0  0  0  0  0  0  0
   -6.8736   -2.6873  -23.8434 C   0  0  0  0  0  0  0  0  0  0  0  0
   -6.1389   -1.3252  -22.6599 C   0  0  0  0  0  0  0  0  0  0  0  0
   -5.2936   -1.2100  -23.8938 O   0  0  0  0  0  0  0  0  0  0  0  0
   -6.0008   -0.4980  -21.4163 N   0  0  0  0  0  0  0  0  0  0  0  0
   -8.5834   -2.5434  -20.6738 H   0  0  0  0  0  0  0  0  0  0  0  0
   -4.9933    0.5896  -21.1881 C   0  0  0  0  0  0  0  0  0  0  0  0
   -3.8775    0.3845  -20.2069 C   0  0  0  0  0  0  0  0  0  0  0  0
   -2.8700    1.4721  -19.9787 N   0  0  0  0  0  0  0  0  0  0  0  0
   -2.9783    2.7648  -20.7316 C   0  0  0  0  0  0  0  0  0  0  0  0
   -4.0942    2.9700  -21.7129 C   0  0  0  0  0  0  0  0  0  0  0  0
   -4.2026    4.2628  -22.4658 C   0  0  0  0  0  0  0  0  0  0  0  0
   -5.3184    4.4679  -23.4470 C   0  0  0  0  0  0  0  0  0  0  0  0
   -6.3259    3.3803  -23.6752 C   0  0  0  0  0  0  0  0  0  0  0  0
   -6.2176    2.0876  -22.9223 C   0  0  0  0  0  0  0  0  0  0  0  0
   -5.1017    1.8824  -21.9411 C   0  0  0  0  0  0  0  0  0  0  0  0
   -8.4417   -4.7416  -24.8450 C   0  0  0  0  0  0  0  0  0  0  0  0
   -7.5375   -5.8569  -25.2792 C   0  0  0  0  0  0  0  0  0  0  0  0
   -8.0228   -6.8732  -26.2699 C   0  0  0  0  0  0  0  0  0  0  0  0
   -9.4123   -6.7743  -26.8264 C   0  0  0  0  0  0  0  0  0  0  0  0
  -10.3165   -5.6590  -26.3921 C   0  0  0  0  0  0  0  0  0  0  0  0
   -9.8312   -4.6427  -25.4014 C   0  0  0  0  0  0  0  0  0  0  0  0
  -10.7353   -3.5274  -24.9672 Cl  0  0  0  0  0  0  0  0  0  0  0  0
  1  2  2  0  0  0
  2  3  1  0  0  0
  3  4  1  0  0  0
  4  5  1  0  0  0
  5  6  1  0  0  0
  6 22  1  0  0  0
 22 23  2  0  0  0
 23 24  1  0  0  0
 24 25  2  0  0  0
 25 26  1  0  0  0
 26 27  2  0  0  0
 27 28  1  0  0  0
  6  7  1  0  0  0
  4  8  1  0  0  0
  8  9  2  0  0  0
  8 10  1  0  0  0
 10 12  1  0  0  0
 12 13  2  0  0  0
 13 14  1  0  0  0
 14 15  2  0  0  0
 15 16  1  0  0  0
 16 17  2  0  0  0
 17 18  1  0  0  0
 18 19  2  0  0  0
 19 20  1  0  0  0
 20 21  2  0  0  0
 10  2  1  0  0  0
 21 12  1  0  0  0
  7  4  1  0  0  0
 21 16  1  0  0  0
 27 22  1  0  0  0
  3 11  1  0  0  0
M  END
> <minimizedAffinity>
-6.72084

> <CNNscore>
0.4040802121

> <CNNaffinity>
5.5884675980

> <CNN_VS>
2.2581892014

> <CNNaffinity_variance>
0.3050172925

$$$$



 28 32  0  0  0  0  0  0  0  0999 V2000
   -5.5861   -1.6306  -23.6057 O   0  0  0  0  0  0  0  0  0  0  0  0
   -7.0292   -1.2448  -23.7426 C   0  0  0  0  0  0  0  0  0  0  0  0
   -7.5739    0.1527  -23.7220 N   0  0  0  0  0  0  0  0  0  0  0  0
   -9.0622    0.0725  -23.8908 C   0  0  0  0  0  0  0  0  0  0  0  0
   -8.9175    1.5620  -23.7888 C   0  0  0  0  0  0  0  0  0  0  0  0
  -10.4015    1.7167  -23.9436 C   0  0  0  0  0  0  0  0  0  0  0  0
  -10.5461    0.2273  -24.0456 C   0  0  0  0  0  0  0  0  0  0  0  0
   -9.4373   -1.3744  -24.0159 C   0  0  0  0  0  0  0  0  0  0  0  0
  -10.8252   -1.9127  -24.2002 O   0  0  0  0  0  0  0  0  0  0  0  0
   -8.1808   -2.1886  -23.9243 N   0  0  0  0  0  0  0  0  0  0  0  0
   -7.0471    0.9776  -23.6161 H   0  0  0  0  0  0  0  0  0  0  0  0
   -8.0916   -3.6840  -24.0009 C   0  0  0  0  0  0  0  0  0  0  0  0
   -7.5756   -4.4655  -22.8292 C   0  0  0  0  0  0  0  0  0  0  0  0
   -7.4864   -5.9609  -22.9058 N   0  0  0  0  0  0  0  0  0  0  0  0
   -7.9132   -6.6747  -24.1541 C   0  0  0  0  0  0  0  0  0  0  0  0
   -8.4292   -5.8932  -25.3259 C   0  0  0  0  0  0  0  0  0  0  0  0
   -8.8560   -6.6070  -26.5741 C   0  0  0  0  0  0  0  0  0  0  0  0
   -9.3720   -5.8255  -27.7458 C   0  0  0  0  0  0  0  0  0  0  0  0
   -9.4612   -4.3301  -27.6692 C   0  0  0  0  0  0  0  0  0  0  0  0
   -9.0344   -3.6163  -26.4209 C   0  0  0  0  0  0  0  0  0  0  0  0
   -8.5184   -4.3978  -25.2493 C   0  0  0  0  0  0  0  0  0  0  0  0
  -11.3484    2.8795  -23.9808 C   0  0  0  0  0  0  0  0  0  0  0  0
  -10.8369    4.2535  -24.2975 C   0  0  0  0  0  0  0  0  0  0  0  0
  -11.7839    5.4162  -24.3348 C   0  0  0  0  0  0  0  0  0  0  0  0
  -13.2424    5.2048  -24.0553 C   0  0  0  0  0  0  0  0  0  0  0  0
  -13.7539    3.8308  -23.7386 C   0  0  0  0  0  0  0  0  0  0  0  0
  -12.8069    2.6681  -23.7014 C   0  0  0  0  0  0  0  0  0  0  0  0
  -13.3184    1.2941  -23.3847 Cl  0  0  0  0  0  0  0  0  0  0  0  0
  1  2  2  0  0  0
  2  3  1  0  0  0
  3  4  1  0  0  0
  4  5  1  0  0  0
  5  6  1  0  0  0
  6 22  1  0  0  0
 22 23  2  0  0  0
 23 24  1  0  0  0
 24 25  2  0  0  0
 25 26  1  0  0  0
 26 27  2  0  0  0
 27 28  1  0  0  0
  6  7  1  0  0  0
  4  8  1  0  0  0
  8  9  2  0  0  0
  8 10  1  0  0  0
 10 12  1  0  0  0
 12 13  2  0  0  0
 13 14  1  0  0  0
 14 15  2  0  0  0
 15 16  1  0  0  0
 16 17  2  0  0  0
 17 18  1  0  0  0
 18 19  2  0  0  0
 19 20  1  0  0  0
 20 21  2  0  0  0
 10  2  1  0  0  0
 21 12  1  0  0  0
  7  4  1  0  0  0
 21 16  1  0  0  0
 27 22  1  0  0  0
  3 11  1  0  0  0
M  END
> <minimizedAffinity>
-7.33629

> <CNNscore>
0.3961170316

> <CNNaffinity>
5.6840448380

> <CNN_VS>
2.2515468597

> <CNNaffinity_variance>
0.2374778539

$$$$



 28 32  0  0  0  0  0  0  0  0999 V2000
   -6.1870   -2.1597  -18.3686 O   0  0  0  0  0  0  0  0  0  0  0  0
   -5.4815   -1.3423  -19.4098 C   0  0  0  0  0  0  0  0  0  0  0  0
   -4.5915   -0.1629  -19.1509 N   0  0  0  0  0  0  0  0  0  0  0  0
   -4.1020    0.3476  -20.4737 C   0  0  0  0  0  0  0  0  0  0  0  0
   -3.4115    1.3287  -19.5734 C   0  0  0  0  0  0  0  0  0  0  0  0
   -2.8066    2.0010  -20.7702 C   0  0  0  0  0  0  0  0  0  0  0  0
   -3.4971    1.0198  -21.6704 C   0  0  0  0  0  0  0  0  0  0  0  0
   -4.6895   -0.5163  -21.5501 C   0  0  0  0  0  0  0  0  0  0  0  0
   -4.4640   -0.3627  -23.0251 O   0  0  0  0  0  0  0  0  0  0  0  0
   -5.5420   -1.5607  -20.8925 N   0  0  0  0  0  0  0  0  0  0  0  0
   -4.3679    0.2106  -18.2679 H   0  0  0  0  0  0  0  0  0  0  0  0
   -6.3188   -2.6350  -21.5945 C   0  0  0  0  0  0  0  0  0  0  0  0
   -5.7359   -4.0095  -21.7386 C   0  0  0  0  0  0  0  0  0  0  0  0
   -6.5126   -5.0837  -22.4405 N   0  0  0  0  0  0  0  0  0  0  0  0
   -7.8722   -4.7834  -22.9984 C   0  0  0  0  0  0  0  0  0  0  0  0
   -8.4552   -3.4088  -22.8543 C   0  0  0  0  0  0  0  0  0  0  0  0
   -9.8148   -3.1085  -23.4121 C   0  0  0  0  0  0  0  0  0  0  0  0
  -10.3976   -1.7340  -23.2680 C   0  0  0  0  0  0  0  0  0  0  0  0
   -9.6209   -0.6597  -22.5660 C   0  0  0  0  0  0  0  0  0  0  0  0
   -8.2613   -0.9600  -22.0082 C   0  0  0  0  0  0  0  0  0  0  0  0
   -7.6784   -2.3346  -22.1523 C   0  0  0  0  0  0  0  0  0  0  0  0
   -1.8905    3.1701  -20.9798 C   0  0  0  0  0  0  0  0  0  0  0  0
   -2.4491    4.4920  -21.4163 C   0  0  0  0  0  0  0  0  0  0  0  0
   -1.5329    5.6610  -21.6258 C   0  0  0  0  0  0  0  0  0  0  0  0
   -0.0581    5.5082  -21.3988 C   0  0  0  0  0  0  0  0  0  0  0  0
    0.5006    4.1864  -20.9622 C   0  0  0  0  0  0  0  0  0  0  0  0
   -0.4156    3.0173  -20.7527 C   0  0  0  0  0  0  0  0  0  0  0  0
    0.1430    1.6955  -20.3162 Cl  0  0  0  0  0  0  0  0  0  0  0  0
  1  2  2  0  0  0
  2  3  1  0  0  0
  3  4  1  0  0  0
  4  5  1  0  0  0
  5  6  1  0  0  0
  6 22  1  0  0  0
 22 23  2  0  0  0
 23 24  1  0  0  0
 24 25  2  0  0  0
 25 26  1  0  0  0
 26 27  2  0  0  0
 27 28  1  0  0  0
  6  7  1  0  0  0
  4  8  1  0  0  0
  8  9  2  0  0  0
  8 10  1  0  0  0
 10 12  1  0  0  0
 12 13  2  0  0  0
 13 14  1  0  0  0
 14 15  2  0  0  0
 15 16  1  0  0  0
 16 17  2  0  0  0
 17 18  1  0  0  0
 18 19  2  0  0  0
 19 20  1  0  0  0
 20 21  2  0  0  0
 10  2  1  0  0  0
 21 12  1  0  0  0
  7  4  1  0  0  0
 21 16  1  0  0  0
 27 22  1  0  0  0
  3 11  1  0  0  0
M  END
> <minimizedAffinity>
-7.38362

> <CNNscore>
0.3936740160

> <CNNaffinity>
5.6095223427

> <CNN_VS>
2.2083232403

> <CNNaffinity_variance>
0.2296655178

$$$$



 28 32  0  0  0  0  0  0  0  0999 V2000
   -8.3671    2.9923  -23.2838 O   0  0  0  0  0  0  0  0  0  0  0  0
   -9.0979    1.7145  -23.5717 C   0  0  0  0  0  0  0  0  0  0  0  0
   -8.4682    0.3792  -23.8374 N   0  0  0  0  0  0  0  0  0  0  0  0
   -9.5679   -0.6130  -24.0744 C   0  0  0  0  0  0  0  0  0  0  0  0
   -8.3890   -1.5259  -24.2372 C   0  0  0  0  0  0  0  0  0  0  0  0
   -9.3157   -2.6751  -24.5029 C   0  0  0  0  0  0  0  0  0  0  0  0
  -10.4946   -1.7621  -24.3402 C   0  0  0  0  0  0  0  0  0  0  0  0
  -10.8773    0.1091  -23.9552 C   0  0  0  0  0  0  0  0  0  0  0  0
  -12.2382   -0.5004  -24.1181 O   0  0  0  0  0  0  0  0  0  0  0  0
  -10.5868    1.5475  -23.6446 N   0  0  0  0  0  0  0  0  0  0  0  0
   -7.5026    0.1877  -23.8534 H   0  0  0  0  0  0  0  0  0  0  0  0
  -11.6063    2.6291  -23.4422 C   0  0  0  0  0  0  0  0  0  0  0  0
  -12.5728    2.5443  -22.2983 C   0  0  0  0  0  0  0  0  0  0  0  0
  -13.5923    3.6258  -22.0960 N   0  0  0  0  0  0  0  0  0  0  0  0
  -13.6452    4.7922  -23.0376 C   0  0  0  0  0  0  0  0  0  0  0  0
  -12.6786    4.8771  -24.1816 C   0  0  0  0  0  0  0  0  0  0  0  0
  -12.7316    6.0435  -25.1232 C   0  0  0  0  0  0  0  0  0  0  0  0
  -11.7650    6.1284  -26.2671 C   0  0  0  0  0  0  0  0  0  0  0  0
  -10.7456    5.0468  -26.4694 C   0  0  0  0  0  0  0  0  0  0  0  0
  -10.6927    3.8804  -25.5278 C   0  0  0  0  0  0  0  0  0  0  0  0
  -11.6592    3.7956  -24.3839 C   0  0  0  0  0  0  0  0  0  0  0  0
   -9.1373   -4.1333  -24.8059 C   0  0  0  0  0  0  0  0  0  0  0  0
   -9.8966   -4.7631  -25.9359 C   0  0  0  0  0  0  0  0  0  0  0  0
   -9.7181   -6.2213  -26.2388 C   0  0  0  0  0  0  0  0  0  0  0  0
   -8.7802   -7.0497  -25.4117 C   0  0  0  0  0  0  0  0  0  0  0  0
   -8.0208   -6.4200  -24.2818 C   0  0  0  0  0  0  0  0  0  0  0  0
   -8.1993   -4.9618  -23.9789 C   0  0  0  0  0  0  0  0  0  0  0  0
   -7.4400   -4.3321  -22.8490 Cl  0  0  0  0  0  0  0  0  0  0  0  0
  1  2  2  0  0  0
  2  3  1  0  0  0
  3  4  1  0  0  0
  4  5  1  0  0  0
  5  6  1  0  0  0
  6 22  1  0  0  0
 22 23  2  0  0  0
 23 24  1  0  0  0
 24 25  2  0  0  0
 25 26  1  0  0  0
 26 27  2  0  0  0
 27 28  1  0  0  0
  6  7  1  0  0  0
  4  8  1  0  0  0
  8  9  2  0  0  0
  8 10  1  0  0  0
 10 12  1  0  0  0
 12 13  2  0  0  0
 13 14  1  0  0  0
 14 15  2  0  0  0
 15 16  1  0  0  0
 16 17  2  0  0  0
 17 18  1  0  0  0
 18 19  2  0  0  0
 19 20  1  0  0  0
 20 21  2  0  0  0
 10  2  1  0  0  0
 21 12  1  0  0  0
  7  4  1  0  0  0
 21 16  1  0  0  0
 27 22  1  0  0  0
  3 11  1  0  0  0
M  END
> <minimizedAffinity>
-7.06631

> <CNNscore>
0.3763384819

> <CNNaffinity>
5.7112617493

> <CNN_VS>
2.1493675709

> <CNNaffinity_variance>
0.0847388729

$$$$



 28 32  0  0  0  0  0  0  0  0999 V2000
   -7.3747   -5.8862  -22.4805 O   0  0  0  0  0  0  0  0  0  0  0  0
   -7.9087   -4.7128  -23.2472 C   0  0  0  0  0  0  0  0  0  0  0  0
   -8.7693   -3.6159  -22.6938 N   0  0  0  0  0  0  0  0  0  0  0  0
   -9.0684   -2.6554  -23.8064 C   0  0  0  0  0  0  0  0  0  0  0  0
   -9.8194   -1.9748  -22.7006 C   0  0  0  0  0  0  0  0  0  0  0  0
  -10.2411   -0.8945  -23.6521 C   0  0  0  0  0  0  0  0  0  0  0  0
   -9.4901   -1.5751  -24.7578 C   0  0  0  0  0  0  0  0  0  0  0  0
   -8.3926   -3.1587  -25.0474 C   0  0  0  0  0  0  0  0  0  0  0  0
   -8.4275   -2.5051  -26.3971 O   0  0  0  0  0  0  0  0  0  0  0  0
   -7.6759   -4.4302  -24.7018 N   0  0  0  0  0  0  0  0  0  0  0  0
   -9.0828   -3.5398  -21.7637 H   0  0  0  0  0  0  0  0  0  0  0  0
   -6.8681   -5.2714  -25.6451 C   0  0  0  0  0  0  0  0  0  0  0  0
   -7.3306   -6.6531  -26.0016 C   0  0  0  0  0  0  0  0  0  0  0  0
   -6.5229   -7.4943  -26.9450 N   0  0  0  0  0  0  0  0  0  0  0  0
   -5.2527   -6.9539  -27.5318 C   0  0  0  0  0  0  0  0  0  0  0  0
   -4.7901   -5.5722  -27.1753 C   0  0  0  0  0  0  0  0  0  0  0  0
   -3.5199   -5.0318  -27.7622 C   0  0  0  0  0  0  0  0  0  0  0  0
   -3.0574   -3.6502  -27.4057 C   0  0  0  0  0  0  0  0  0  0  0  0
   -3.8651   -2.8089  -26.4623 C   0  0  0  0  0  0  0  0  0  0  0  0
   -5.1353   -3.3493  -25.8755 C   0  0  0  0  0  0  0  0  0  0  0  0
   -5.5978   -4.7310  -26.2320 C   0  0  0  0  0  0  0  0  0  0  0  0
  -11.0704    0.3506  -23.5428 C   0  0  0  0  0  0  0  0  0  0  0  0
  -10.4207    1.6974  -23.6620 C   0  0  0  0  0  0  0  0  0  0  0  0
  -11.2501    2.9424  -23.5527 C   0  0  0  0  0  0  0  0  0  0  0  0
  -12.7291    2.8408  -23.3242 C   0  0  0  0  0  0  0  0  0  0  0  0
  -13.3788    1.4940  -23.2049 C   0  0  0  0  0  0  0  0  0  0  0  0
  -12.5494    0.2490  -23.3142 C   0  0  0  0  0  0  0  0  0  0  0  0
  -13.1990   -1.0978  -23.1950 Cl  0  0  0  0  0  0  0  0  0  0  0  0
  1  2  2  0  0  0
  2  3  1  0  0  0
  3  4  1  0  0  0
  4  5  1  0  0  0
  5  6  1  0  0  0
  6 22  1  0  0  0
 22 23  2  0  0  0
 23 24  1  0  0  0
 24 25  2  0  0  0
 25 26  1  0  0  0
 26 27  2  0  0  0
 27 28  1  0  0  0
  6  7  1  0  0  0
  4  8  1  0  0  0
  8  9  2  0  0  0
  8 10  1  0  0  0
 10 12  1  0  0  0
 12 13  2  0  0  0
 13 14  1  0  0  0
 14 15  2  0  0  0
 15 16  1  0  0  0
 16 17  2  0  0  0
 17 18  1  0  0  0
 18 19  2  0  0  0
 19 20  1  0  0  0
 20 21  2  0  0  0
 10  2  1  0  0  0
 21 12  1  0  0  0
  7  4  1  0  0  0
 21 16  1  0  0  0
 27 22  1  0  0  0
  3 11  1  0  0  0
M  END
> <minimizedAffinity>
-6.55030

> <CNNscore>
0.3510529101

> <CNNaffinity>
5.5500569344

> <CNN_VS>
1.9483636618

> <CNNaffinity_variance>
0.2574178576

$$$$
