
     RDKit          2D

 27 31  0  0  0  0  0  0  0  0999 V2000
   -3.4182    0.0420    0.0000 O   0  0  0  0  0  0  0  0  0  0  0  0
   -3.8817   -1.3846    0.0000 C   0  0  0  0  0  0  0  0  0  0  0  0
   -5.3083   -1.8481    0.0000 N   0  0  0  0  0  0  0  0  0  0  0  0
   -5.3083   -3.3481    0.0000 C   0  0  0  0  0  0  0  0  0  0  0  0
   -6.7898   -3.1134    0.0000 C   0  0  0  0  0  0  0  0  0  0  0  0
   -7.0244   -4.5950    0.0000 C   0  0  0  0  0  0  0  0  0  0  0  0
   -8.2380   -5.4766    0.0000 C   0  0  0  0  0  0  0  0  0  0  0  0
   -9.6083   -4.8665    0.0000 C   0  0  0  0  0  0  0  0  0  0  0  0
  -10.8218   -5.7482    0.0000 C   0  0  0  0  0  0  0  0  0  0  0  0
  -10.6650   -7.2400    0.0000 C   0  0  0  0  0  0  0  0  0  0  0  0
   -9.2947   -7.8501    0.0000 C   0  0  0  0  0  0  0  0  0  0  0  0
   -8.0812   -6.9684    0.0000 C   0  0  0  0  0  0  0  0  0  0  0  0
   -6.7109   -7.5785    0.0000 Cl  0  0  0  0  0  0  0  0  0  0  0  0
   -5.5429   -4.8296    0.0000 C   0  0  0  0  0  0  0  0  0  0  0  0
   -3.8817   -3.8116    0.0000 C   0  0  0  0  0  0  0  0  0  0  0  0
   -3.4182   -5.2382    0.0000 O   0  0  0  0  0  0  0  0  0  0  0  0
   -3.0000   -2.5981    0.0000 N   0  0  0  0  0  0  0  0  0  0  0  0
   -1.5000   -2.5981    0.0000 C   0  0  0  0  0  0  0  0  0  0  0  0
   -0.7500   -3.8971    0.0000 C   0  0  0  0  0  0  0  0  0  0  0  0
    0.7500   -3.8971    0.0000 N   0  0  0  0  0  0  0  0  0  0  0  0
    1.5000   -2.5981    0.0000 C   0  0  0  0  0  0  0  0  0  0  0  0
    0.7500   -1.2990    0.0000 C   0  0  0  0  0  0  0  0  0  0  0  0
    1.5000    0.0000    0.0000 C   0  0  0  0  0  0  0  0  0  0  0  0
    0.7500    1.2990    0.0000 C   0  0  0  0  0  0  0  0  0  0  0  0
   -0.7500    1.2990    0.0000 C   0  0  0  0  0  0  0  0  0  0  0  0
   -1.5000    0.0000    0.0000 C   0  0  0  0  0  0  0  0  0  0  0  0
   -0.7500   -1.2990    0.0000 C   0  0  0  0  0  0  0  0  0  0  0  0
  1  2  2  0
  2  3  1  0
  3  4  1  0
  4  5  1  1
  5  6  1  0
  6  7  1  1
  7  8  2  0
  8  9  1  0
  9 10  2  0
 10 11  1  0
 11 12  2  0
 12 13  1  0
  6 14  1  0
  4 15  1  0
 15 16  2  0
 15 17  1  0
 17 18  1  0
 18 19  2  0
 19 20  1  0
 20 21  2  0
 21 22  1  0
 22 23  2  0
 23 24  1  0
 24 25  2  0
 25 26  1  0
 26 27  2  0
 17  2  1  0
 27 18  1  0
 14  4  1  0
 27 22  1  0
 12  7  1  0
M  END
$$$$
