


 40 45  0  0  0  0  0  0  0  0999 V2000
   -7.3176   -1.3031  -23.5303 N   0  0  0  0  0  0  0  0  0  0  0  0
   -7.7020    0.1409  -23.6610 C   0  0  0  0  0  0  0  0  0  0  0  0
   -9.1462    0.5413  -23.5977 C   0  0  0  0  0  0  0  0  0  0  0  0
  -10.5417    1.0896  -23.5544 C   0  0  0  0  0  0  0  0  0  0  0  0
  -11.6882    0.7079  -23.4269 O   0  0  0  0  0  0  0  0  0  0  0  0
  -10.4606    2.5777  -23.7246 N   0  0  0  0  0  0  0  0  0  0  0  0
   -9.0150    2.9491  -23.8731 C   0  0  0  0  0  0  0  0  0  0  0  0
   -8.2026    1.6905  -23.7947 C   0  0  0  0  0  0  0  0  0  0  0  0
  -10.2060   -0.5024  -23.4037 C   0  0  0  0  0  0  0  0  0  0  0  0
  -11.6502   -0.1021  -23.3404 C   0  0  0  0  0  0  0  0  0  0  0  0
  -12.7099   -1.1457  -23.1464 C   0  0  0  0  0  0  0  0  0  0  0  0
  -14.1542   -0.7454  -23.0831 Cl  0  0  0  0  0  0  0  0  0  0  0  0
  -12.3255   -2.5897  -23.0157 C   0  0  0  0  0  0  0  0  0  0  0  0
  -10.8813   -2.9901  -23.0790 C   0  0  0  0  0  0  0  0  0  0  0  0
   -9.8216   -1.9464  -23.2730 C   0  0  0  0  0  0  0  0  0  0  0  0
   -8.3773   -2.3467  -23.3363 C   0  0  0  0  0  0  0  0  0  0  0  0
   -7.9929   -3.7907  -23.2056 O   0  0  0  0  0  0  0  0  0  0  0  0
  -11.6214    3.5275  -23.7430 C   0  0  0  0  0  0  0  0  0  0  0  0
  -12.4639    3.7061  -22.5149 C   0  0  0  0  0  0  0  0  0  0  0  0
  -13.6247    4.6560  -22.5333 N   0  0  0  0  0  0  0  0  0  0  0  0
  -13.9429    5.4273  -23.7798 C   0  0  0  0  0  0  0  0  0  0  0  0
  -13.1004    5.2487  -25.0079 C   0  0  0  0  0  0  0  0  0  0  0  0
  -13.4187    6.0200  -26.2545 C   0  0  0  0  0  0  0  0  0  0  0  0
  -12.5761    5.8413  -27.4826 C   0  0  0  0  0  0  0  0  0  0  0  0
  -11.4153    4.8915  -27.4642 C   0  0  0  0  0  0  0  0  0  0  0  0
  -11.0971    4.1202  -26.2176 C   0  0  0  0  0  0  0  0  0  0  0  0
  -11.9396    4.2988  -24.9895 C   0  0  0  0  0  0  0  0  0  0  0  0
   -5.8734   -1.7034  -23.5936 C   0  0  0  0  0  0  0  0  0  0  0  0
   -5.1680   -1.7596  -24.9163 C   0  0  0  0  0  0  0  0  0  0  0  0
   -3.0819   -0.8568  -26.1745 C   0  0  0  0  0  0  0  0  0  0  0  0
   -4.3183   -0.6070  -25.3627 N   0  0  0  0  0  0  0  0  0  0  0  0
   -4.5813    0.3467  -25.1143 H   0  0  0  0  0  0  0  0  0  0  0  0
   -5.1590   -0.4371  -24.8107 H   0  0  0  0  0  0  0  0  0  0  0  0
   -6.7089    1.5976  -23.8957 C   0  0  0  0  0  0  0  0  0  0  0  0
   -5.8471    2.1578  -22.8034 O   0  0  0  0  0  0  0  0  0  0  0  0
   -5.0886    1.2334  -21.8977 C   0  0  0  0  0  0  0  0  0  0  0  0
   -4.0888    1.7880  -20.9267 C   0  0  0  0  0  0  0  0  0  0  0  0
   -3.6416    1.4255  -19.5415 C   0  0  0  0  0  0  0  0  0  0  0  0
   -2.6749    2.5724  -19.5534 O   0  0  0  0  0  0  0  0  0  0  0  0
   -3.1221    2.9350  -20.9386 C   0  0  0  0  0  0  0  0  0  0  0  0
 30 31  1  0  0  0
 31 29  1  0  0  0
 29 28  1  0  0  0
 28  1  1  0  0  0
  1  2  1  0  0  0
  3  2  1  0  0  0
  3  4  1  0  0  0
  4  5  2  0  0  0
  4  6  1  0  0  0
  6 18  1  0  0  0
 18 19  2  0  0  0
 19 20  1  0  0  0
 20 21  2  0  0  0
 21 22  1  0  0  0
 22 23  2  0  0  0
 23 24  1  0  0  0
 24 25  2  0  0  0
 25 26  1  0  0  0
 26 27  2  0  0  0
  6  7  1  0  0  0
  7  8  1  0  0  0
  8 34  1  0  0  0
 34 35  1  0  0  0
 35 36  1  0  0  0
 36 37  1  0  0  0
 37 38  1  0  0  0
 38 39  1  0  0  0
 39 40  1  0  0  0
  3  9  1  0  0  0
  9 10  2  0  0  0
 10 11  1  0  0  0
 11 12  1  0  0  0
 11 13  2  0  0  0
 13 14  1  0  0  0
 14 15  2  0  0  0
 15 16  1  0  0  0
 16 17  2  0  0  0
 16  1  1  0  0  0
  8  3  1  0  0  0
 40 37  1  0  0  0
 15  9  1  0  0  0
 27 18  1  0  0  0
 27 22  1  0  0  0
 31 32  1  0  0  0
 31 33  1  0  0  0
M  CHG 1  31   1
M  END
> <minimizedAffinity>
-6.92382

> <CNNscore>
0.7174391150

> <CNNaffinity>
6.7041387558

> <CNN_VS>
4.8098115921

> <CNNaffinity_variance>
0.0557357594

$$$$



 40 45  0  0  0  0  0  0  0  0999 V2000
   -8.4502   -5.5937  -24.4799 N   0  0  0  0  0  0  0  0  0  0  0  0
   -7.3917   -5.2372  -23.4786 C   0  0  0  0  0  0  0  0  0  0  0  0
   -7.4268   -3.9036  -22.7929 C   0  0  0  0  0  0  0  0  0  0  0  0
   -7.3318   -2.6148  -22.0314 C   0  0  0  0  0  0  0  0  0  0  0  0
   -7.9181   -1.5569  -21.9152 O   0  0  0  0  0  0  0  0  0  0  0  0
   -6.1238   -2.6879  -21.1451 N   0  0  0  0  0  0  0  0  0  0  0  0
   -5.4722   -4.0220  -21.3589 C   0  0  0  0  0  0  0  0  0  0  0  0
   -6.2775   -4.7733  -22.3772 C   0  0  0  0  0  0  0  0  0  0  0  0
   -8.5204   -2.9265  -23.1084 C   0  0  0  0  0  0  0  0  0  0  0  0
   -8.5554   -1.5929  -22.4226 C   0  0  0  0  0  0  0  0  0  0  0  0
   -9.6489   -0.6159  -22.7382 C   0  0  0  0  0  0  0  0  0  0  0  0
   -9.6840    0.7178  -22.0524 Cl  0  0  0  0  0  0  0  0  0  0  0  0
  -10.7074   -0.9724  -23.7395 C   0  0  0  0  0  0  0  0  0  0  0  0
  -10.6723   -2.3060  -24.4253 C   0  0  0  0  0  0  0  0  0  0  0  0
   -9.5788   -3.2830  -24.1097 C   0  0  0  0  0  0  0  0  0  0  0  0
   -9.5437   -4.6167  -24.7955 C   0  0  0  0  0  0  0  0  0  0  0  0
  -10.6021   -4.9732  -25.7968 O   0  0  0  0  0  0  0  0  0  0  0  0
   -5.6506   -1.6153  -20.2094 C   0  0  0  0  0  0  0  0  0  0  0  0
   -6.0027   -1.6817  -18.7528 C   0  0  0  0  0  0  0  0  0  0  0  0
   -5.5295   -0.6091  -17.8171 N   0  0  0  0  0  0  0  0  0  0  0  0
   -4.7041    0.5299  -18.3380 C   0  0  0  0  0  0  0  0  0  0  0  0
   -4.3520    0.5963  -19.7946 C   0  0  0  0  0  0  0  0  0  0  0  0
   -3.5265    1.7354  -20.3155 C   0  0  0  0  0  0  0  0  0  0  0  0
   -3.1745    1.8017  -21.7721 C   0  0  0  0  0  0  0  0  0  0  0  0
   -3.6477    0.7291  -22.7078 C   0  0  0  0  0  0  0  0  0  0  0  0
   -4.4731   -0.4099  -22.1869 C   0  0  0  0  0  0  0  0  0  0  0  0
   -4.8252   -0.4763  -20.7303 C   0  0  0  0  0  0  0  0  0  0  0  0
   -8.4151   -6.9274  -25.1657 C   0  0  0  0  0  0  0  0  0  0  0  0
   -9.3949   -7.2345  -26.2591 C   0  0  0  0  0  0  0  0  0  0  0  0
   -8.3419   -6.5342  -28.5286 C   0  0  0  0  0  0  0  0  0  0  0  0
   -8.9014   -7.5958  -27.6287 N   0  0  0  0  0  0  0  0  0  0  0  0
   -8.9463   -8.5635  -27.9481 H   0  0  0  0  0  0  0  0  0  0  0  0
   -9.2819   -8.3178  -27.0168 H   0  0  0  0  0  0  0  0  0  0  0  0
   -5.9849   -6.1523  -22.8899 C   0  0  0  0  0  0  0  0  0  0  0  0
   -4.6275   -6.7565  -22.6843 O   0  0  0  0  0  0  0  0  0  0  0  0
   -3.9197   -7.4180  -23.8295 C   0  0  0  0  0  0  0  0  0  0  0  0
   -2.5337   -6.9848  -24.2054 C   0  0  0  0  0  0  0  0  0  0  0  0
   -1.8791   -6.4990  -25.4647 C   0  0  0  0  0  0  0  0  0  0  0  0
   -0.5735   -6.3721  -24.7371 O   0  0  0  0  0  0  0  0  0  0  0  0
   -1.2280   -6.8579  -23.4778 C   0  0  0  0  0  0  0  0  0  0  0  0
 30 31  1  0  0  0
 31 29  1  0  0  0
 29 28  1  0  0  0
 28  1  1  0  0  0
  1  2  1  0  0  0
  3  2  1  0  0  0
  3  4  1  0  0  0
  4  5  2  0  0  0
  4  6  1  0  0  0
  6 18  1  0  0  0
 18 19  2  0  0  0
 19 20  1  0  0  0
 20 21  2  0  0  0
 21 22  1  0  0  0
 22 23  2  0  0  0
 23 24  1  0  0  0
 24 25  2  0  0  0
 25 26  1  0  0  0
 26 27  2  0  0  0
  6  7  1  0  0  0
  7  8  1  0  0  0
  8 34  1  0  0  0
 34 35  1  0  0  0
 35 36  1  0  0  0
 36 37  1  0  0  0
 37 38  1  0  0  0
 38 39  1  0  0  0
 39 40  1  0  0  0
  3  9  1  0  0  0
  9 10  2  0  0  0
 10 11  1  0  0  0
 11 12  1  0  0  0
 11 13  2  0  0  0
 13 14  1  0  0  0
 14 15  2  0  0  0
 15 16  1  0  0  0
 16 17  2  0  0  0
 16  1  1  0  0  0
  8  3  1  0  0  0
 40 37  1  0  0  0
 15  9  1  0  0  0
 27 18  1  0  0  0
 27 22  1  0  0  0
 31 32  1  0  0  0
 31 33  1  0  0  0
M  CHG 1  31   1
M  END
> <minimizedAffinity>
-8.41042

> <CNNscore>
0.5078969002

> <CNNaffinity>
6.6400222778

> <CNN_VS>
3.3724467754

> <CNNaffinity_variance>
0.4566132128

$$$$



 40 45  0  0  0  0  0  0  0  0999 V2000
   -5.4326   -6.1665  -23.5250 N   0  0  0  0  0  0  0  0  0  0  0  0
   -6.0292   -4.9123  -22.9586 C   0  0  0  0  0  0  0  0  0  0  0  0
   -7.0677   -4.1586  -23.7353 C   0  0  0  0  0  0  0  0  0  0  0  0
   -8.1099   -3.3031  -24.3925 C   0  0  0  0  0  0  0  0  0  0  0  0
   -8.7669   -3.2558  -25.4135 O   0  0  0  0  0  0  0  0  0  0  0  0
   -8.4132   -2.1553  -23.4756 N   0  0  0  0  0  0  0  0  0  0  0  0
   -7.5585   -2.3015  -22.2517 C   0  0  0  0  0  0  0  0  0  0  0  0
   -6.7269   -3.5395  -22.4122 C   0  0  0  0  0  0  0  0  0  0  0  0
   -7.5097   -4.6591  -25.0785 C   0  0  0  0  0  0  0  0  0  0  0  0
   -8.5482   -3.9054  -25.8553 C   0  0  0  0  0  0  0  0  0  0  0  0
   -8.9901   -4.4059  -27.1984 C   0  0  0  0  0  0  0  0  0  0  0  0
  -10.0287   -3.6522  -27.9752 Cl  0  0  0  0  0  0  0  0  0  0  0  0
   -8.3934   -5.6602  -27.7649 C   0  0  0  0  0  0  0  0  0  0  0  0
   -7.3549   -6.4139  -26.9881 C   0  0  0  0  0  0  0  0  0  0  0  0
   -6.9130   -5.9134  -25.6450 C   0  0  0  0  0  0  0  0  0  0  0  0
   -5.8744   -6.6671  -24.8682 C   0  0  0  0  0  0  0  0  0  0  0  0
   -5.2778   -7.9213  -25.4346 O   0  0  0  0  0  0  0  0  0  0  0  0
   -9.3983   -1.0547  -23.7368 C   0  0  0  0  0  0  0  0  0  0  0  0
   -8.9387    0.2318  -24.3561 C   0  0  0  0  0  0  0  0  0  0  0  0
   -9.9238    1.3325  -24.6173 N   0  0  0  0  0  0  0  0  0  0  0  0
  -11.3685    1.1465  -24.2592 C   0  0  0  0  0  0  0  0  0  0  0  0
  -11.8281   -0.1401  -23.6398 C   0  0  0  0  0  0  0  0  0  0  0  0
  -13.2729   -0.3260  -23.2816 C   0  0  0  0  0  0  0  0  0  0  0  0
  -13.7323   -1.6126  -22.6623 C   0  0  0  0  0  0  0  0  0  0  0  0
  -12.7472   -2.7132  -22.4011 C   0  0  0  0  0  0  0  0  0  0  0  0
  -11.3026   -2.5272  -22.7593 C   0  0  0  0  0  0  0  0  0  0  0  0
  -10.8430   -1.2407  -23.3786 C   0  0  0  0  0  0  0  0  0  0  0  0
   -4.3940   -6.9202  -22.7482 C   0  0  0  0  0  0  0  0  0  0  0  0
   -3.0153   -7.0951  -23.3128 C   0  0  0  0  0  0  0  0  0  0  0  0
   -0.7081   -7.9512  -22.4800 C   0  0  0  0  0  0  0  0  0  0  0  0
   -2.1430   -8.2150  -22.8285 N   0  0  0  0  0  0  0  0  0  0  0  0
   -2.5255   -9.1561  -22.7362 H   0  0  0  0  0  0  0  0  0  0  0  0
   -3.1187   -8.3945  -23.0655 H   0  0  0  0  0  0  0  0  0  0  0  0
   -5.7296   -4.0661  -21.4231 C   0  0  0  0  0  0  0  0  0  0  0  0
   -4.9850   -3.1174  -20.5313 O   0  0  0  0  0  0  0  0  0  0  0  0
   -5.7381   -2.2291  -19.5860 C   0  0  0  0  0  0  0  0  0  0  0  0
   -5.2203   -0.8565  -19.2733 C   0  0  0  0  0  0  0  0  0  0  0  0
   -5.1699    0.0039  -18.0455 C   0  0  0  0  0  0  0  0  0  0  0  0
   -4.4880    1.0848  -18.8310 O   0  0  0  0  0  0  0  0  0  0  0  0
   -4.5384    0.2244  -20.0587 C   0  0  0  0  0  0  0  0  0  0  0  0
 30 31  1  0  0  0
 31 29  1  0  0  0
 29 28  1  0  0  0
 28  1  1  0  0  0
  1  2  1  0  0  0
  3  2  1  0  0  0
  3  4  1  0  0  0
  4  5  2  0  0  0
  4  6  1  0  0  0
  6 18  1  0  0  0
 18 19  2  0  0  0
 19 20  1  0  0  0
 20 21  2  0  0  0
 21 22  1  0  0  0
 22 23  2  0  0  0
 23 24  1  0  0  0
 24 25  2  0  0  0
 25 26  1  0  0  0
 26 27  2  0  0  0
  6  7  1  0  0  0
  7  8  1  0  0  0
  8 34  1  0  0  0
 34 35  1  0  0  0
 35 36  1  0  0  0
 36 37  1  0  0  0
 37 38  1  0  0  0
 38 39  1  0  0  0
 39 40  1  0  0  0
  3  9  1  0  0  0
  9 10  2  0  0  0
 10 11  1  0  0  0
 11 12  1  0  0  0
 11 13  2  0  0  0
 13 14  1  0  0  0
 14 15  2  0  0  0
 15 16  1  0  0  0
 16 17  2  0  0  0
 16  1  1  0  0  0
  8  3  1  0  0  0
 40 37  1  0  0  0
 15  9  1  0  0  0
 27 18  1  0  0  0
 27 22  1  0  0  0
 31 32  1  0  0  0
 31 33  1  0  0  0
M  CHG 1  31   1
M  END
> <minimizedAffinity>
-7.76528

> <CNNscore>
0.3619411290

> <CNNaffinity>
6.6296181679

> <CNN_VS>
2.3995316029

> <CNNaffinity_variance>
0.1596714258

$$$$



 40 45  0  0  0  0  0  0  0  0999 V2000
   -5.1087   -6.5180  -23.9296 N   0  0  0  0  0  0  0  0  0  0  0  0
   -5.8697   -5.4494  -23.2023 C   0  0  0  0  0  0  0  0  0  0  0  0
   -7.0608   -4.8056  -23.8477 C   0  0  0  0  0  0  0  0  0  0  0  0
   -8.2654   -4.0752  -24.3629 C   0  0  0  0  0  0  0  0  0  0  0  0
   -8.9788   -4.0333  -25.3456 O   0  0  0  0  0  0  0  0  0  0  0  0
   -8.6999   -3.0979  -23.3111 N   0  0  0  0  0  0  0  0  0  0  0  0
   -7.7639   -3.2244  -22.1459 C   0  0  0  0  0  0  0  0  0  0  0  0
   -6.7509   -4.2798  -22.4775 C   0  0  0  0  0  0  0  0  0  0  0  0
   -7.4910   -5.2304  -25.2206 C   0  0  0  0  0  0  0  0  0  0  0  0
   -8.6821   -4.5865  -25.8660 C   0  0  0  0  0  0  0  0  0  0  0  0
   -9.1122   -5.0113  -27.2388 C   0  0  0  0  0  0  0  0  0  0  0  0
  -10.3034   -4.3675  -27.8843 Cl  0  0  0  0  0  0  0  0  0  0  0  0
   -8.3512   -6.0799  -27.9661 C   0  0  0  0  0  0  0  0  0  0  0  0
   -7.1601   -6.7237  -27.3206 C   0  0  0  0  0  0  0  0  0  0  0  0
   -6.7300   -6.2990  -25.9479 C   0  0  0  0  0  0  0  0  0  0  0  0
   -5.5388   -6.9428  -25.3023 C   0  0  0  0  0  0  0  0  0  0  0  0
   -4.7778   -8.0114  -26.0296 O   0  0  0  0  0  0  0  0  0  0  0  0
   -9.8658   -2.1591  -23.4077 C   0  0  0  0  0  0  0  0  0  0  0  0
  -11.2443   -2.6368  -23.0591 C   0  0  0  0  0  0  0  0  0  0  0  0
  -12.4102   -1.6979  -23.1556 N   0  0  0  0  0  0  0  0  0  0  0  0
  -12.1975   -0.2814  -23.6008 C   0  0  0  0  0  0  0  0  0  0  0  0
  -10.8190    0.1963  -23.9494 C   0  0  0  0  0  0  0  0  0  0  0  0
  -10.6063    1.6129  -24.3946 C   0  0  0  0  0  0  0  0  0  0  0  0
   -9.2278    2.0905  -24.7432 C   0  0  0  0  0  0  0  0  0  0  0  0
   -8.0619    1.1516  -24.6466 C   0  0  0  0  0  0  0  0  0  0  0  0
   -8.2746   -0.2649  -24.2015 C   0  0  0  0  0  0  0  0  0  0  0  0
   -9.6531   -0.7426  -23.8529 C   0  0  0  0  0  0  0  0  0  0  0  0
   -3.9175   -7.1619  -23.2840 C   0  0  0  0  0  0  0  0  0  0  0  0
   -2.5378   -6.8680  -23.7941 C   0  0  0  0  0  0  0  0  0  0  0  0
   -0.1716   -6.5814  -22.7604 C   0  0  0  0  0  0  0  0  0  0  0  0
   -1.3423   -7.4542  -23.1035 N   0  0  0  0  0  0  0  0  0  0  0  0
   -1.3253   -8.4463  -22.8672 H   0  0  0  0  0  0  0  0  0  0  0  0
   -2.1383   -8.0477  -23.3369 H   0  0  0  0  0  0  0  0  0  0  0  0
   -5.6255   -4.7303  -21.5940 C   0  0  0  0  0  0  0  0  0  0  0  0
   -5.2093   -3.8909  -20.4227 O   0  0  0  0  0  0  0  0  0  0  0  0
   -5.1317   -2.3991  -20.5588 C   0  0  0  0  0  0  0  0  0  0  0  0
   -5.8156   -1.5179  -19.5560 C   0  0  0  0  0  0  0  0  0  0  0  0
   -7.2375   -1.1238  -19.2855 C   0  0  0  0  0  0  0  0  0  0  0  0
   -6.7829   -0.2716  -18.1377 O   0  0  0  0  0  0  0  0  0  0  0  0
   -5.3611   -0.6657  -18.4083 C   0  0  0  0  0  0  0  0  0  0  0  0
 30 31  1  0  0  0
 31 29  1  0  0  0
 29 28  1  0  0  0
 28  1  1  0  0  0
  1  2  1  0  0  0
  3  2  1  0  0  0
  3  4  1  0  0  0
  4  5  2  0  0  0
  4  6  1  0  0  0
  6 18  1  0  0  0
 18 19  2  0  0  0
 19 20  1  0  0  0
 20 21  2  0  0  0
 21 22  1  0  0  0
 22 23  2  0  0  0
 23 24  1  0  0  0
 24 25  2  0  0  0
 25 26  1  0  0  0
 26 27  2  0  0  0
  6  7  1  0  0  0
  7  8  1  0  0  0
  8 34  1  0  0  0
 34 35  1  0  0  0
 35 36  1  0  0  0
 36 37  1  0  0  0
 37 38  1  0  0  0
 38 39  1  0  0  0
 39 40  1  0  0  0
  3  9  1  0  0  0
  9 10  2  0  0  0
 10 11  1  0  0  0
 11 12  1  0  0  0
 11 13  2  0  0  0
 13 14  1  0  0  0
 14 15  2  0  0  0
 15 16  1  0  0  0
 16 17  2  0  0  0
 16  1  1  0  0  0
  8  3  1  0  0  0
 40 37  1  0  0  0
 15  9  1  0  0  0
 27 18  1  0  0  0
 27 22  1  0  0  0
 31 32  1  0  0  0
 31 33  1  0  0  0
M  CHG 1  31   1
M  END
> <minimizedAffinity>
-7.32991

> <CNNscore>
0.3422108889

> <CNNaffinity>
6.4441199303

> <CNN_VS>
2.2052481174

> <CNNaffinity_variance>
0.4273886681

$$$$



 40 45  0  0  0  0  0  0  0  0999 V2000
   -7.7073   -3.3306  -26.5023 N   0  0  0  0  0  0  0  0  0  0  0  0
   -7.2800   -3.4972  -25.0741 C   0  0  0  0  0  0  0  0  0  0  0  0
   -7.0389   -2.2897  -24.2176 C   0  0  0  0  0  0  0  0  0  0  0  0
   -6.7622   -1.1817  -23.2451 C   0  0  0  0  0  0  0  0  0  0  0  0
   -6.7608    0.0322  -23.1928 O   0  0  0  0  0  0  0  0  0  0  0  0
   -6.3656   -1.8008  -21.9376 N   0  0  0  0  0  0  0  0  0  0  0  0
   -6.3972   -3.2914  -22.1021 C   0  0  0  0  0  0  0  0  0  0  0  0
   -6.8133   -3.5935  -23.5112 C   0  0  0  0  0  0  0  0  0  0  0  0
   -7.2252   -0.9154  -24.7892 C   0  0  0  0  0  0  0  0  0  0  0  0
   -6.9842    0.2922  -23.9327 C   0  0  0  0  0  0  0  0  0  0  0  0
   -7.1705    1.6664  -24.5044 C   0  0  0  0  0  0  0  0  0  0  0  0
   -6.9295    2.8740  -23.6479 Cl  0  0  0  0  0  0  0  0  0  0  0  0
   -7.5978    1.8330  -25.9325 C   0  0  0  0  0  0  0  0  0  0  0  0
   -7.8388    0.6255  -26.7891 C   0  0  0  0  0  0  0  0  0  0  0  0
   -7.6525   -0.7487  -26.2174 C   0  0  0  0  0  0  0  0  0  0  0  0
   -7.8936   -1.9564  -27.0739 C   0  0  0  0  0  0  0  0  0  0  0  0
   -8.3209   -1.7898  -28.5021 O   0  0  0  0  0  0  0  0  0  0  0  0
   -6.0013   -1.0594  -20.6856 C   0  0  0  0  0  0  0  0  0  0  0  0
   -6.8344   -1.2213  -19.4488 C   0  0  0  0  0  0  0  0  0  0  0  0
   -6.4702   -0.4799  -18.1967 N   0  0  0  0  0  0  0  0  0  0  0  0
   -5.2728    0.4234  -18.1815 C   0  0  0  0  0  0  0  0  0  0  0  0
   -4.4396    0.5853  -19.4183 C   0  0  0  0  0  0  0  0  0  0  0  0
   -3.2421    1.4886  -19.4030 C   0  0  0  0  0  0  0  0  0  0  0  0
   -2.4091    1.6504  -20.6398 C   0  0  0  0  0  0  0  0  0  0  0  0
   -2.7733    0.9091  -21.8919 C   0  0  0  0  0  0  0  0  0  0  0  0
   -3.9707    0.0058  -21.9071 C   0  0  0  0  0  0  0  0  0  0  0  0
   -4.8039   -0.1561  -20.6703 C   0  0  0  0  0  0  0  0  0  0  0  0
   -7.9483   -4.5382  -27.3588 C   0  0  0  0  0  0  0  0  0  0  0  0
   -9.3206   -5.1383  -27.4400 C   0  0  0  0  0  0  0  0  0  0  0  0
   -9.3086   -7.3578  -26.0895 C   0  0  0  0  0  0  0  0  0  0  0  0
   -9.4924   -6.6275  -27.3868 N   0  0  0  0  0  0  0  0  0  0  0  0
   -9.7341   -7.1435  -28.2327 H   0  0  0  0  0  0  0  0  0  0  0  0
   -9.6173   -6.1309  -28.2689 H   0  0  0  0  0  0  0  0  0  0  0  0
   -6.9754   -4.9597  -24.1089 C   0  0  0  0  0  0  0  0  0  0  0  0
   -7.1412   -6.1539  -23.2166 O   0  0  0  0  0  0  0  0  0  0  0  0
   -5.9338   -6.8400  -22.6497 C   0  0  0  0  0  0  0  0  0  0  0  0
   -4.7823   -7.1923  -23.5440 C   0  0  0  0  0  0  0  0  0  0  0  0
   -3.2907   -7.0601  -23.4546 C   0  0  0  0  0  0  0  0  0  0  0  0
   -3.1536   -7.6905  -24.8088 O   0  0  0  0  0  0  0  0  0  0  0  0
   -4.6452   -7.8227  -24.8982 C   0  0  0  0  0  0  0  0  0  0  0  0
 30 31  1  0  0  0
 31 29  1  0  0  0
 29 28  1  0  0  0
 28  1  1  0  0  0
  1  2  1  0  0  0
  3  2  1  0  0  0
  3  4  1  0  0  0
  4  5  2  0  0  0
  4  6  1  0  0  0
  6 18  1  0  0  0
 18 19  2  0  0  0
 19 20  1  0  0  0
 20 21  2  0  0  0
 21 22  1  0  0  0
 22 23  2  0  0  0
 23 24  1  0  0  0
 24 25  2  0  0  0
 25 26  1  0  0  0
 26 27  2  0  0  0
  6  7  1  0  0  0
  7  8  1  0  0  0
  8 34  1  0  0  0
 34 35  1  0  0  0
 35 36  1  0  0  0
 36 37  1  0  0  0
 37 38  1  0  0  0
 38 39  1  0  0  0
 39 40  1  0  0  0
  3  9  1  0  0  0
  9 10  2  0  0  0
 10 11  1  0  0  0
 11 12  1  0  0  0
 11 13  2  0  0  0
 13 14  1  0  0  0
 14 15  2  0  0  0
 15 16  1  0  0  0
 16 17  2  0  0  0
 16  1  1  0  0  0
  8  3  1  0  0  0
 40 37  1  0  0  0
 15  9  1  0  0  0
 27 18  1  0  0  0
 27 22  1  0  0  0
 31 32  1  0  0  0
 31 33  1  0  0  0
M  CHG 1  31   1
M  END
> <minimizedAffinity>
-7.50097

> <CNNscore>
0.2740247548

> <CNNaffinity>
6.3001914024

> <CNN_VS>
1.7264083624

> <CNNaffinity_variance>
0.2138544619

$$$$



 40 45  0  0  0  0  0  0  0  0999 V2000
   -7.0768   -3.2979  -22.4888 N   0  0  0  0  0  0  0  0  0  0  0  0
   -7.9780   -2.4500  -23.3367 C   0  0  0  0  0  0  0  0  0  0  0  0
   -7.8207   -0.9583  -23.3391 C   0  0  0  0  0  0  0  0  0  0  0  0
   -7.7825    0.5375  -23.4436 C   0  0  0  0  0  0  0  0  0  0  0  0
   -7.1644    1.4860  -23.0024 O   0  0  0  0  0  0  0  0  0  0  0  0
   -8.8565    0.9629  -24.4005 N   0  0  0  0  0  0  0  0  0  0  0  0
   -9.5585   -0.2701  -24.8873 C   0  0  0  0  0  0  0  0  0  0  0  0
   -8.9183   -1.4574  -24.2313 C   0  0  0  0  0  0  0  0  0  0  0  0
   -6.7622   -0.3144  -22.4935 C   0  0  0  0  0  0  0  0  0  0  0  0
   -6.6048    1.1773  -22.4959 C   0  0  0  0  0  0  0  0  0  0  0  0
   -5.5463    1.8211  -21.6503 C   0  0  0  0  0  0  0  0  0  0  0  0
   -5.3890    3.3129  -21.6527 Cl  0  0  0  0  0  0  0  0  0  0  0  0
   -4.6451    0.9732  -20.8024 C   0  0  0  0  0  0  0  0  0  0  0  0
   -4.8024   -0.5184  -20.8000 C   0  0  0  0  0  0  0  0  0  0  0  0
   -5.8610   -1.1623  -21.6456 C   0  0  0  0  0  0  0  0  0  0  0  0
   -6.0183   -2.6541  -21.6432 C   0  0  0  0  0  0  0  0  0  0  0  0
   -5.1171   -3.5019  -20.7953 O   0  0  0  0  0  0  0  0  0  0  0  0
   -9.1730    2.3736  -24.8003 C   0  0  0  0  0  0  0  0  0  0  0  0
   -8.2921    3.0912  -25.7796 C   0  0  0  0  0  0  0  0  0  0  0  0
   -8.6085    4.5018  -26.1794 N   0  0  0  0  0  0  0  0  0  0  0  0
   -9.8059    5.1949  -25.5999 C   0  0  0  0  0  0  0  0  0  0  0  0
  -10.6868    4.4773  -24.6206 C   0  0  0  0  0  0  0  0  0  0  0  0
  -11.8843    5.1705  -24.0411 C   0  0  0  0  0  0  0  0  0  0  0  0
  -12.7652    4.4528  -23.0618 C   0  0  0  0  0  0  0  0  0  0  0  0
  -12.4487    3.0422  -22.6620 C   0  0  0  0  0  0  0  0  0  0  0  0
  -11.2513    2.3491  -23.2415 C   0  0  0  0  0  0  0  0  0  0  0  0
  -10.3704    3.0667  -24.2208 C   0  0  0  0  0  0  0  0  0  0  0  0
   -7.2342   -4.7897  -22.4864 C   0  0  0  0  0  0  0  0  0  0  0  0
   -6.0571   -5.6675  -22.1800 C   0  0  0  0  0  0  0  0  0  0  0  0
   -4.3985   -7.0991  -23.5763 C   0  0  0  0  0  0  0  0  0  0  0  0
   -4.9161   -5.7575  -23.1496 N   0  0  0  0  0  0  0  0  0  0  0  0
   -4.4922   -4.9064  -23.5187 H   0  0  0  0  0  0  0  0  0  0  0  0
   -5.2680   -4.8452  -22.8594 H   0  0  0  0  0  0  0  0  0  0  0  0
   -9.3075   -2.8921  -24.4323 C   0  0  0  0  0  0  0  0  0  0  0  0
  -10.5881   -3.4107  -23.8486 O   0  0  0  0  0  0  0  0  0  0  0  0
  -11.1912   -2.7411  -22.6494 C   0  0  0  0  0  0  0  0  0  0  0  0
  -12.5193   -2.0533  -22.7632 C   0  0  0  0  0  0  0  0  0  0  0  0
  -13.0391   -0.8696  -23.5240 C   0  0  0  0  0  0  0  0  0  0  0  0
  -14.3977   -1.0806  -22.9241 O   0  0  0  0  0  0  0  0  0  0  0  0
  -13.8780   -2.2644  -22.1633 C   0  0  0  0  0  0  0  0  0  0  0  0
 30 31  1  0  0  0
 31 29  1  0  0  0
 29 28  1  0  0  0
 28  1  1  0  0  0
  1  2  1  0  0  0
  3  2  1  0  0  0
  3  4  1  0  0  0
  4  5  2  0  0  0
  4  6  1  0  0  0
  6 18  1  0  0  0
 18 19  2  0  0  0
 19 20  1  0  0  0
 20 21  2  0  0  0
 21 22  1  0  0  0
 22 23  2  0  0  0
 23 24  1  0  0  0
 24 25  2  0  0  0
 25 26  1  0  0  0
 26 27  2  0  0  0
  6  7  1  0  0  0
  7  8  1  0  0  0
  8 34  1  0  0  0
 34 35  1  0  0  0
 35 36  1  0  0  0
 36 37  1  0  0  0
 37 38  1  0  0  0
 38 39  1  0  0  0
 39 40  1  0  0  0
  3  9  1  0  0  0
  9 10  2  0  0  0
 10 11  1  0  0  0
 11 12  1  0  0  0
 11 13  2  0  0  0
 13 14  1  0  0  0
 14 15  2  0  0  0
 15 16  1  0  0  0
 16 17  2  0  0  0
 16  1  1  0  0  0
  8  3  1  0  0  0
 40 37  1  0  0  0
 15  9  1  0  0  0
 27 18  1  0  0  0
 27 22  1  0  0  0
 31 32  1  0  0  0
 31 33  1  0  0  0
M  CHG 1  31   1
M  END
> <minimizedAffinity>
-6.92430

> <CNNscore>
0.2249900699

> <CNNaffinity>
6.3128194809

> <CNN_VS>
1.4203217030

> <CNNaffinity_variance>
0.2921687961

$$$$



 40 45  0  0  0  0  0  0  0  0999 V2000
   -8.0547    2.3252  -23.8470 N   0  0  0  0  0  0  0  0  0  0  0  0
   -7.2675    1.0499  -23.9093 C   0  0  0  0  0  0  0  0  0  0  0  0
   -7.9685   -0.2708  -23.7894 C   0  0  0  0  0  0  0  0  0  0  0  0
   -8.5284   -1.6584  -23.6850 C   0  0  0  0  0  0  0  0  0  0  0  0
   -9.5942   -2.2237  -23.5405 O   0  0  0  0  0  0  0  0  0  0  0  0
   -7.3892   -2.6277  -23.7981 N   0  0  0  0  0  0  0  0  0  0  0  0
   -6.1252   -1.8390  -23.9725 C   0  0  0  0  0  0  0  0  0  0  0  0
   -6.4833   -0.3824  -23.9671 C   0  0  0  0  0  0  0  0  0  0  0  0
   -9.4568   -0.3161  -23.6073 C   0  0  0  0  0  0  0  0  0  0  0  0
  -10.1578   -1.6368  -23.4874 C   0  0  0  0  0  0  0  0  0  0  0  0
  -11.6460   -1.6821  -23.3052 C   0  0  0  0  0  0  0  0  0  0  0  0
  -12.3471   -3.0028  -23.1853 Cl  0  0  0  0  0  0  0  0  0  0  0  0
  -12.4331   -0.4067  -23.2429 C   0  0  0  0  0  0  0  0  0  0  0  0
  -11.7321    0.9139  -23.3628 C   0  0  0  0  0  0  0  0  0  0  0  0
  -10.2439    0.9592  -23.5450 C   0  0  0  0  0  0  0  0  0  0  0  0
   -9.5429    2.2799  -23.6649 C   0  0  0  0  0  0  0  0  0  0  0  0
  -10.3300    3.5553  -23.6026 O   0  0  0  0  0  0  0  0  0  0  0  0
   -7.4953   -4.1230  -23.7459 C   0  0  0  0  0  0  0  0  0  0  0  0
   -7.0087   -4.8678  -22.5382 C   0  0  0  0  0  0  0  0  0  0  0  0
   -7.1149   -6.3631  -22.4861 N   0  0  0  0  0  0  0  0  0  0  0  0
   -7.7076   -7.1136  -23.6417 C   0  0  0  0  0  0  0  0  0  0  0  0
   -8.1942   -6.3688  -24.8494 C   0  0  0  0  0  0  0  0  0  0  0  0
   -8.7869   -7.1194  -26.0050 C   0  0  0  0  0  0  0  0  0  0  0  0
   -9.2735   -6.3745  -27.2127 C   0  0  0  0  0  0  0  0  0  0  0  0
   -9.1674   -4.8792  -27.2648 C   0  0  0  0  0  0  0  0  0  0  0  0
   -8.5746   -4.1287  -26.1092 C   0  0  0  0  0  0  0  0  0  0  0  0
   -8.0880   -4.8735  -24.9015 C   0  0  0  0  0  0  0  0  0  0  0  0
   -7.3536    3.6459  -23.9669 C   0  0  0  0  0  0  0  0  0  0  0  0
   -7.1119    4.4805  -22.7442 C   0  0  0  0  0  0  0  0  0  0  0  0
   -8.5554    6.4958  -23.5217 C   0  0  0  0  0  0  0  0  0  0  0  0
   -8.0301    5.6218  -22.4216 N   0  0  0  0  0  0  0  0  0  0  0  0
   -8.2974    5.8036  -21.4542 H   0  0  0  0  0  0  0  0  0  0  0  0
   -7.6729    5.0275  -21.6735 H   0  0  0  0  0  0  0  0  0  0  0  0
   -5.5244    0.7618  -24.1137 C   0  0  0  0  0  0  0  0  0  0  0  0
   -4.2217    0.7486  -23.3704 O   0  0  0  0  0  0  0  0  0  0  0  0
   -3.6643    2.0239  -22.8111 C   0  0  0  0  0  0  0  0  0  0  0  0
   -3.3377    2.1226  -21.3504 C   0  0  0  0  0  0  0  0  0  0  0  0
   -3.6867    1.3245  -20.1292 C   0  0  0  0  0  0  0  0  0  0  0  0
   -2.8758    2.2623  -19.2846 O   0  0  0  0  0  0  0  0  0  0  0  0
   -2.5269    3.0604  -20.5058 C   0  0  0  0  0  0  0  0  0  0  0  0
 30 31  1  0  0  0
 31 29  1  0  0  0
 29 28  1  0  0  0
 28  1  1  0  0  0
  1  2  1  0  0  0
  3  2  1  0  0  0
  3  4  1  0  0  0
  4  5  2  0  0  0
  4  6  1  0  0  0
  6 18  1  0  0  0
 18 19  2  0  0  0
 19 20  1  0  0  0
 20 21  2  0  0  0
 21 22  1  0  0  0
 22 23  2  0  0  0
 23 24  1  0  0  0
 24 25  2  0  0  0
 25 26  1  0  0  0
 26 27  2  0  0  0
  6  7  1  0  0  0
  7  8  1  0  0  0
  8 34  1  0  0  0
 34 35  1  0  0  0
 35 36  1  0  0  0
 36 37  1  0  0  0
 37 38  1  0  0  0
 38 39  1  0  0  0
 39 40  1  0  0  0
  3  9  1  0  0  0
  9 10  2  0  0  0
 10 11  1  0  0  0
 11 12  1  0  0  0
 11 13  2  0  0  0
 13 14  1  0  0  0
 14 15  2  0  0  0
 15 16  1  0  0  0
 16 17  2  0  0  0
 16  1  1  0  0  0
  8  3  1  0  0  0
 40 37  1  0  0  0
 15  9  1  0  0  0
 27 18  1  0  0  0
 27 22  1  0  0  0
 31 32  1  0  0  0
 31 33  1  0  0  0
M  CHG 1  31   1
M  END
> <minimizedAffinity>
-6.87981

> <CNNscore>
0.2164894342

> <CNNaffinity>
6.3515625000

> <CNN_VS>
1.3750461340

> <CNNaffinity_variance>
0.1505961716

$$$$



 40 45  0  0  0  0  0  0  0  0999 V2000
   -6.6823   -1.1451  -23.5676 N   0  0  0  0  0  0  0  0  0  0  0  0
   -8.1327   -0.7984  -23.7298 C   0  0  0  0  0  0  0  0  0  0  0  0
   -8.5902    0.6183  -23.5470 C   0  0  0  0  0  0  0  0  0  0  0  0
   -9.1927    1.9836  -23.3958 C   0  0  0  0  0  0  0  0  0  0  0  0
   -8.8611    3.1243  -23.1404 O   0  0  0  0  0  0  0  0  0  0  0  0
  -10.6676    1.8696  -23.6443 N   0  0  0  0  0  0  0  0  0  0  0  0
  -10.9766    0.4338  -23.9491 C   0  0  0  0  0  0  0  0  0  0  0  0
   -9.6927   -0.3396  -23.8890 C   0  0  0  0  0  0  0  0  0  0  0  0
   -7.5974    1.6885  -23.2019 C   0  0  0  0  0  0  0  0  0  0  0  0
   -8.0549    3.1052  -23.0191 C   0  0  0  0  0  0  0  0  0  0  0  0
   -7.0621    4.1754  -22.6740 C   0  0  0  0  0  0  0  0  0  0  0  0
   -7.5197    5.5922  -22.4912 Cl  0  0  0  0  0  0  0  0  0  0  0  0
   -5.6118    3.8287  -22.5118 C   0  0  0  0  0  0  0  0  0  0  0  0
   -5.1542    2.4120  -22.6946 C   0  0  0  0  0  0  0  0  0  0  0  0
   -6.1470    1.3419  -23.0397 C   0  0  0  0  0  0  0  0  0  0  0  0
   -5.6895   -0.0749  -23.2225 C   0  0  0  0  0  0  0  0  0  0  0  0
   -4.2391   -0.4215  -23.0602 O   0  0  0  0  0  0  0  0  0  0  0  0
  -11.6593    2.9940  -23.5964 C   0  0  0  0  0  0  0  0  0  0  0  0
  -12.6440    3.0780  -22.4680 C   0  0  0  0  0  0  0  0  0  0  0  0
  -13.6357    4.2024  -22.4201 N   0  0  0  0  0  0  0  0  0  0  0  0
  -13.6427    5.2427  -23.5006 C   0  0  0  0  0  0  0  0  0  0  0  0
  -12.6579    5.1587  -24.6291 C   0  0  0  0  0  0  0  0  0  0  0  0
  -12.6649    6.1992  -25.7096 C   0  0  0  0  0  0  0  0  0  0  0  0
  -11.6802    6.1151  -26.8380 C   0  0  0  0  0  0  0  0  0  0  0  0
  -10.6885    4.9907  -26.8859 C   0  0  0  0  0  0  0  0  0  0  0  0
  -10.6815    3.9503  -25.8054 C   0  0  0  0  0  0  0  0  0  0  0  0
  -11.6663    4.0343  -24.6770 C   0  0  0  0  0  0  0  0  0  0  0  0
   -6.2248   -2.5619  -23.7504 C   0  0  0  0  0  0  0  0  0  0  0  0
   -6.4723   -3.5750  -22.6723 C   0  0  0  0  0  0  0  0  0  0  0  0
   -5.4892   -2.6354  -20.4585 C   0  0  0  0  0  0  0  0  0  0  0  0
   -5.5179   -3.6937  -21.5212 N   0  0  0  0  0  0  0  0  0  0  0  0
   -4.8883   -4.4940  -21.4611 H   0  0  0  0  0  0  0  0  0  0  0  0
   -5.5374   -4.4132  -22.2439 H   0  0  0  0  0  0  0  0  0  0  0  0
   -9.5385   -1.8122  -24.1287 C   0  0  0  0  0  0  0  0  0  0  0  0
  -10.4996   -2.5303  -25.0289 O   0  0  0  0  0  0  0  0  0  0  0  0
  -10.5927   -4.0268  -24.9855 C   0  0  0  0  0  0  0  0  0  0  0  0
  -10.1825   -4.8386  -26.1783 C   0  0  0  0  0  0  0  0  0  0  0  0
   -9.3917   -4.5687  -27.4240 C   0  0  0  0  0  0  0  0  0  0  0  0
   -9.6024   -5.9868  -27.8652 O   0  0  0  0  0  0  0  0  0  0  0  0
  -10.3933   -6.2568  -26.6195 C   0  0  0  0  0  0  0  0  0  0  0  0
 30 31  1  0  0  0
 31 29  1  0  0  0
 29 28  1  0  0  0
 28  1  1  0  0  0
  1  2  1  0  0  0
  3  2  1  0  0  0
  3  4  1  0  0  0
  4  5  2  0  0  0
  4  6  1  0  0  0
  6 18  1  0  0  0
 18 19  2  0  0  0
 19 20  1  0  0  0
 20 21  2  0  0  0
 21 22  1  0  0  0
 22 23  2  0  0  0
 23 24  1  0  0  0
 24 25  2  0  0  0
 25 26  1  0  0  0
 26 27  2  0  0  0
  6  7  1  0  0  0
  7  8  1  0  0  0
  8 34  1  0  0  0
 34 35  1  0  0  0
 35 36  1  0  0  0
 36 37  1  0  0  0
 37 38  1  0  0  0
 38 39  1  0  0  0
 39 40  1  0  0  0
  3  9  1  0  0  0
  9 10  2  0  0  0
 10 11  1  0  0  0
 11 12  1  0  0  0
 11 13  2  0  0  0
 13 14  1  0  0  0
 14 15  2  0  0  0
 15 16  1  0  0  0
 16 17  2  0  0  0
 16  1  1  0  0  0
  8  3  1  0  0  0
 40 37  1  0  0  0
 15  9  1  0  0  0
 27 18  1  0  0  0
 27 22  1  0  0  0
 31 32  1  0  0  0
 31 33  1  0  0  0
M  CHG 1  31   1
M  END
> <minimizedAffinity>
-7.18018

> <CNNscore>
0.2151743323

> <CNNaffinity>
6.1418251991

> <CNN_VS>
1.3215631247

> <CNNaffinity_variance>
0.1112748608

$$$$



 40 45  0  0  0  0  0  0  0  0999 V2000
   -7.1902   -5.1439  -22.7255 N   0  0  0  0  0  0  0  0  0  0  0  0
   -8.0255   -4.1963  -23.5344 C   0  0  0  0  0  0  0  0  0  0  0  0
   -7.9019   -2.7169  -23.3197 C   0  0  0  0  0  0  0  0  0  0  0  0
   -7.8873   -1.2205  -23.2168 C   0  0  0  0  0  0  0  0  0  0  0  0
   -7.3351   -0.3358  -22.5934 O   0  0  0  0  0  0  0  0  0  0  0  0
   -8.8747   -0.6781  -24.2071 N   0  0  0  0  0  0  0  0  0  0  0  0
   -9.4997   -1.8392  -24.9221 C   0  0  0  0  0  0  0  0  0  0  0  0
   -8.8984   -3.0993  -24.3736 C   0  0  0  0  0  0  0  0  0  0  0  0
   -6.9430   -2.1851  -22.2960 C   0  0  0  0  0  0  0  0  0  0  0  0
   -6.8195   -0.7057  -22.0813 C   0  0  0  0  0  0  0  0  0  0  0  0
   -5.8607   -0.1740  -21.0577 C   0  0  0  0  0  0  0  0  0  0  0  0
   -5.7370    1.3054  -20.8429 Cl  0  0  0  0  0  0  0  0  0  0  0  0
   -5.0254   -1.1216  -20.2487 C   0  0  0  0  0  0  0  0  0  0  0  0
   -5.1490   -2.6010  -20.4634 C   0  0  0  0  0  0  0  0  0  0  0  0
   -6.1078   -3.1327  -21.4871 C   0  0  0  0  0  0  0  0  0  0  0  0
   -6.2314   -4.6122  -21.7018 C   0  0  0  0  0  0  0  0  0  0  0  0
   -5.3962   -5.5598  -20.8929 O   0  0  0  0  0  0  0  0  0  0  0  0
   -9.1831    0.7711  -24.4412 C   0  0  0  0  0  0  0  0  0  0  0  0
   -8.1312    1.6803  -25.0041 C   0  0  0  0  0  0  0  0  0  0  0  0
   -8.4395    3.1295  -25.2383 N   0  0  0  0  0  0  0  0  0  0  0  0
   -9.7998    3.6694  -24.9096 C   0  0  0  0  0  0  0  0  0  0  0  0
  -10.8517    2.7602  -24.3467 C   0  0  0  0  0  0  0  0  0  0  0  0
  -12.2121    3.3002  -24.0180 C   0  0  0  0  0  0  0  0  0  0  0  0
  -13.2639    2.3909  -23.4551 C   0  0  0  0  0  0  0  0  0  0  0  0
  -12.9556    0.9417  -23.2210 C   0  0  0  0  0  0  0  0  0  0  0  0
  -11.5953    0.4018  -23.5497 C   0  0  0  0  0  0  0  0  0  0  0  0
  -10.5434    1.3110  -24.1125 C   0  0  0  0  0  0  0  0  0  0  0  0
   -7.3139   -6.6234  -22.9402 C   0  0  0  0  0  0  0  0  0  0  0  0
   -6.1764   -7.5315  -22.5776 C   0  0  0  0  0  0  0  0  0  0  0  0
   -4.5292   -6.7818  -24.4418 C   0  0  0  0  0  0  0  0  0  0  0  0
   -5.1300   -7.8672  -23.5986 N   0  0  0  0  0  0  0  0  0  0  0  0
   -4.8270   -8.8337  -23.7194 H   0  0  0  0  0  0  0  0  0  0  0  0
   -5.5385   -8.6053  -23.0252 H   0  0  0  0  0  0  0  0  0  0  0  0
   -9.2347   -4.4964  -24.8037 C   0  0  0  0  0  0  0  0  0  0  0  0
  -10.2701   -4.7260  -25.8643 O   0  0  0  0  0  0  0  0  0  0  0  0
  -10.2217   -5.9685  -26.7033 C   0  0  0  0  0  0  0  0  0  0  0  0
   -8.9113   -6.4560  -27.2467 C   0  0  0  0  0  0  0  0  0  0  0  0
   -7.5694   -6.7716  -26.6553 C   0  0  0  0  0  0  0  0  0  0  0  0
   -7.0581   -7.1454  -28.0151 O   0  0  0  0  0  0  0  0  0  0  0  0
   -8.4000   -6.8297  -28.6065 C   0  0  0  0  0  0  0  0  0  0  0  0
 30 31  1  0  0  0
 31 29  1  0  0  0
 29 28  1  0  0  0
 28  1  1  0  0  0
  1  2  1  0  0  0
  3  2  1  0  0  0
  3  4  1  0  0  0
  4  5  2  0  0  0
  4  6  1  0  0  0
  6 18  1  0  0  0
 18 19  2  0  0  0
 19 20  1  0  0  0
 20 21  2  0  0  0
 21 22  1  0  0  0
 22 23  2  0  0  0
 23 24  1  0  0  0
 24 25  2  0  0  0
 25 26  1  0  0  0
 26 27  2  0  0  0
  6  7  1  0  0  0
  7  8  1  0  0  0
  8 34  1  0  0  0
 34 35  1  0  0  0
 35 36  1  0  0  0
 36 37  1  0  0  0
 37 38  1  0  0  0
 38 39  1  0  0  0
 39 40  1  0  0  0
  3  9  1  0  0  0
  9 10  2  0  0  0
 10 11  1  0  0  0
 11 12  1  0  0  0
 11 13  2  0  0  0
 13 14  1  0  0  0
 14 15  2  0  0  0
 15 16  1  0  0  0
 16 17  2  0  0  0
 16  1  1  0  0  0
  8  3  1  0  0  0
 40 37  1  0  0  0
 15  9  1  0  0  0
 27 18  1  0  0  0
 27 22  1  0  0  0
 31 32  1  0  0  0
 31 33  1  0  0  0
M  CHG 1  31   1
M  END
> <minimizedAffinity>
-7.57310

> <CNNscore>
0.2075804472

> <CNNaffinity>
6.2347397804

> <CNN_VS>
1.2942100763

> <CNNaffinity_variance>
0.3620104194

$$$$
