


 41 46  0  0  0  0  0  0  0  0999 V2000
   10.9528   -2.4596   24.8368 C   0  0  0  0  0  0  0  0  0  0  0  0
    9.5575   -2.7244   24.3538 C   0  0  0  0  0  0  0  0  0  0  0  0
    9.0126   -4.0147   24.8906 C   0  0  0  0  0  0  0  0  0  0  0  0
    7.6225   -4.1893   24.3548 N   0  0  0  0  0  0  0  0  0  0  0  0
    7.3083   -3.0069   23.4870 C   0  0  0  0  0  0  0  0  0  0  0  0
    6.0237   -2.7712   22.7493 O   0  0  0  0  0  0  0  0  0  0  0  0
    8.5042   -2.1015   23.4864 C   0  0  0  0  0  0  0  0  0  0  0  0
    7.3610   -1.6027   22.6532 C   0  0  0  0  0  0  0  0  0  0  0  0
    7.4823   -0.3027   21.9148 N   0  0  0  0  0  0  0  0  0  0  0  0
    8.7469    0.4985   22.0096 C   0  0  0  0  0  0  0  0  0  0  0  0
    8.8682    1.7985   21.2711 O   0  0  0  0  0  0  0  0  0  0  0  0
    9.8902   -0.0003   22.8428 C   0  0  0  0  0  0  0  0  0  0  0  0
   11.1547    0.8009   22.9375 C   0  0  0  0  0  0  0  0  0  0  0  0
   12.2979    0.3021   23.7707 C   0  0  0  0  0  0  0  0  0  0  0  0
   12.1766   -0.9979   24.5091 C   0  0  0  0  0  0  0  0  0  0  0  0
   13.3199   -1.4967   25.3423 Cl  0  0  0  0  0  0  0  0  0  0  0  0
   10.9120   -1.7991   24.4143 C   0  0  0  0  0  0  0  0  0  0  0  0
    9.7688   -1.3003   23.5812 C   0  0  0  0  0  0  0  0  0  0  0  0
    6.7072   -5.3437   24.6373 C   0  0  0  0  0  0  0  0  0  0  0  0
    7.0330   -6.7071   24.1038 C   0  0  0  0  0  0  0  0  0  0  0  0
    6.1177   -7.8614   24.3862 N   0  0  0  0  0  0  0  0  0  0  0  0
    4.8766   -7.6522   25.2022 C   0  0  0  0  0  0  0  0  0  0  0  0
    4.5508   -6.2887   25.7358 C   0  0  0  0  0  0  0  0  0  0  0  0
    3.3097   -6.0795   26.5518 C   0  0  0  0  0  0  0  0  0  0  0  0
    2.9839   -4.7160   27.0854 C   0  0  0  0  0  0  0  0  0  0  0  0
    3.8992   -3.5617   26.8029 C   0  0  0  0  0  0  0  0  0  0  0  0
    5.1403   -3.7709   25.9869 C   0  0  0  0  0  0  0  0  0  0  0  0
    5.4661   -5.1344   25.4533 C   0  0  0  0  0  0  0  0  0  0  0  0
    6.3391    0.1961   21.0816 C   0  0  0  0  0  0  0  0  0  0  0  0
    5.7457    1.5466   21.3539 C   0  0  0  0  0  0  0  0  0  0  0  0
    5.7404    2.0957   22.7498 N   0  0  0  0  0  0  0  0  0  0  0  0
    5.1043    1.3141   23.8609 C   0  0  0  0  0  0  0  0  0  0  0  0
    5.0989    1.8632   25.2567 C   0  0  0  0  0  0  0  0  0  0  0  0
    5.7297    3.1940   25.5415 N   0  0  0  0  0  0  0  0  0  0  0  0
    6.3658    3.9756   24.4305 C   0  0  0  0  0  0  0  0  0  0  0  0
    6.3712    3.4265   23.0346 C   0  0  0  0  0  0  0  0  0  0  0  0
    5.7368    2.4692   23.6989 H   0  0  0  0  0  0  0  0  0  0  0  0
    5.7244    3.7432   26.9373 S   0  0  0  0  0  0  0  0  0  0  0  0
    5.7191    4.2923   28.3332 C   0  0  0  0  0  0  0  0  0  0  0  0
    4.8676    4.8877   26.4837 O   0  0  0  0  0  0  0  0  0  0  0  0
    6.5813    2.5986   27.3909 O   0  0  0  0  0  0  0  0  0  0  0  0
  2  1  1  0  0  0
  2  3  1  0  0  0
  3  4  1  0  0  0
  4 19  1  0  0  0
 19 20  2  0  0  0
 20 21  1  0  0  0
 21 22  2  0  0  0
 22 23  1  0  0  0
 23 24  2  0  0  0
 24 25  1  0  0  0
 25 26  2  0  0  0
 26 27  1  0  0  0
 27 28  2  0  0  0
  4  5  1  0  0  0
  5  6  2  0  0  0
  5  7  1  0  0  0
  7  8  1  0  0  0
  8  9  1  0  0  0
  9 29  1  0  0  0
 29 30  1  0  0  0
 30 31  1  0  0  0
 31 32  1  0  0  0
 32 33  1  0  0  0
 33 34  1  0  0  0
 34 38  1  0  0  0
 38 39  1  0  0  0
 38 40  2  0  0  0
 38 41  2  0  0  0
 34 35  1  0  0  0
 35 36  1  0  0  0
  9 10  1  0  0  0
 10 11  2  0  0  0
 10 12  1  0  0  0
 12 13  2  0  0  0
 13 14  1  0  0  0
 14 15  2  0  0  0
 15 16  1  0  0  0
 15 17  1  0  0  0
 17 18  2  0  0  0
  7  2  1  0  0  0
 36 31  1  0  0  0
 18 12  1  0  0  0
 28 19  1  0  0  0
 18  7  1  0  0  0
 28 23  1  0  0  0
 31 37  1  0  0  0
M  CHG 1  31   1
M  END
> <minimizedAffinity>
-8.12652

> <CNNscore>
0.3755991459

> <CNNaffinity>
6.8934249878

> <CNN_VS>
2.5891644955

> <CNNaffinity_variance>
0.0973611176

$$$$



 41 46  0  0  0  0  0  0  0  0999 V2000
    7.4700   -3.4202   23.3317 C   0  0  0  0  0  0  0  0  0  0  0  0
    7.6647   -2.1028   22.6413 C   0  0  0  0  0  0  0  0  0  0  0  0
    6.6013   -1.8435   21.6156 C   0  0  0  0  0  0  0  0  0  0  0  0
    6.8810   -0.5117   20.9845 N   0  0  0  0  0  0  0  0  0  0  0  0
    8.1171    0.0520   21.6203 C   0  0  0  0  0  0  0  0  0  0  0  0
    8.7566    1.3681   21.2900 O   0  0  0  0  0  0  0  0  0  0  0  0
    8.6015   -0.9313   22.6442 C   0  0  0  0  0  0  0  0  0  0  0  0
    9.4481    0.3021   22.5345 C   0  0  0  0  0  0  0  0  0  0  0  0
   10.6569    0.4621   23.4080 N   0  0  0  0  0  0  0  0  0  0  0  0
   11.0192   -0.6112   24.3912 C   0  0  0  0  0  0  0  0  0  0  0  0
   12.2281   -0.4511   25.2647 O   0  0  0  0  0  0  0  0  0  0  0  0
   10.1726   -1.8446   24.5010 C   0  0  0  0  0  0  0  0  0  0  0  0
   10.5349   -2.9179   25.4842 C   0  0  0  0  0  0  0  0  0  0  0  0
    9.6883   -4.1512   25.5939 C   0  0  0  0  0  0  0  0  0  0  0  0
    8.4794   -4.3113   24.7204 C   0  0  0  0  0  0  0  0  0  0  0  0
    7.6328   -5.5447   24.8302 Cl  0  0  0  0  0  0  0  0  0  0  0  0
    8.1171   -3.2380   23.7372 C   0  0  0  0  0  0  0  0  0  0  0  0
    8.9637   -2.0047   23.6275 C   0  0  0  0  0  0  0  0  0  0  0  0
    6.0673    0.1416   19.9070 C   0  0  0  0  0  0  0  0  0  0  0  0
    6.4894    0.0233   18.4725 C   0  0  0  0  0  0  0  0  0  0  0  0
    5.6758    0.6766   17.3950 N   0  0  0  0  0  0  0  0  0  0  0  0
    4.4400    1.4482   17.7519 C   0  0  0  0  0  0  0  0  0  0  0  0
    4.0179    1.5666   19.1865 C   0  0  0  0  0  0  0  0  0  0  0  0
    2.7821    2.3383   19.5434 C   0  0  0  0  0  0  0  0  0  0  0  0
    2.3601    2.4566   20.9779 C   0  0  0  0  0  0  0  0  0  0  0  0
    3.1737    1.8033   22.0554 C   0  0  0  0  0  0  0  0  0  0  0  0
    4.4095    1.0316   21.6985 C   0  0  0  0  0  0  0  0  0  0  0  0
    4.8316    0.9133   20.2640 C   0  0  0  0  0  0  0  0  0  0  0  0
   11.5035    1.6956   23.2982 C   0  0  0  0  0  0  0  0  0  0  0  0
   11.1916    2.7291   22.2568 C   0  0  0  0  0  0  0  0  0  0  0  0
   10.4442    3.9733   22.6353 N   0  0  0  0  0  0  0  0  0  0  0  0
    8.9945    3.8919   23.0123 C   0  0  0  0  0  0  0  0  0  0  0  0
    8.2471    5.1361   23.3908 C   0  0  0  0  0  0  0  0  0  0  0  0
    8.9491    6.4616   23.3923 N   0  0  0  0  0  0  0  0  0  0  0  0
   10.3987    6.5430   23.0154 C   0  0  0  0  0  0  0  0  0  0  0  0
   11.1462    5.2988   22.6369 C   0  0  0  0  0  0  0  0  0  0  0  0
    9.9359    4.8193   22.8927 H   0  0  0  0  0  0  0  0  0  0  0  0
    8.2017    7.7058   23.7708 S   0  0  0  0  0  0  0  0  0  0  0  0
    7.4541    8.9500   24.1493 C   0  0  0  0  0  0  0  0  0  0  0  0
    9.1289    7.9096   24.9322 O   0  0  0  0  0  0  0  0  0  0  0  0
    7.2745    7.5020   22.6095 O   0  0  0  0  0  0  0  0  0  0  0  0
  2  1  1  0  0  0
  2  3  1  0  0  0
  3  4  1  0  0  0
  4 19  1  0  0  0
 19 20  2  0  0  0
 20 21  1  0  0  0
 21 22  2  0  0  0
 22 23  1  0  0  0
 23 24  2  0  0  0
 24 25  1  0  0  0
 25 26  2  0  0  0
 26 27  1  0  0  0
 27 28  2  0  0  0
  4  5  1  0  0  0
  5  6  2  0  0  0
  5  7  1  0  0  0
  7  8  1  0  0  0
  8  9  1  0  0  0
  9 29  1  0  0  0
 29 30  1  0  0  0
 30 31  1  0  0  0
 31 32  1  0  0  0
 32 33  1  0  0  0
 33 34  1  0  0  0
 34 38  1  0  0  0
 38 39  1  0  0  0
 38 40  2  0  0  0
 38 41  2  0  0  0
 34 35  1  0  0  0
 35 36  1  0  0  0
  9 10  1  0  0  0
 10 11  2  0  0  0
 10 12  1  0  0  0
 12 13  2  0  0  0
 13 14  1  0  0  0
 14 15  2  0  0  0
 15 16  1  0  0  0
 15 17  1  0  0  0
 17 18  2  0  0  0
  7  2  1  0  0  0
 36 31  1  0  0  0
 18 12  1  0  0  0
 28 19  1  0  0  0
 18  7  1  0  0  0
 28 23  1  0  0  0
 31 37  1  0  0  0
M  CHG 1  31   1
M  END
> <minimizedAffinity>
-9.57032

> <CNNscore>
0.3687589765

> <CNNaffinity>
6.9508934021

> <CNN_VS>
2.5632042885

> <CNNaffinity_variance>
0.2544998229

$$$$



 41 46  0  0  0  0  0  0  0  0999 V2000
   10.7974   -3.1395   26.0061 C   0  0  0  0  0  0  0  0  0  0  0  0
    9.3904   -2.8645   25.5646 C   0  0  0  0  0  0  0  0  0  0  0  0
    8.4133   -3.8290   26.1687 C   0  0  0  0  0  0  0  0  0  0  0  0
    7.0436   -3.4744   25.6704 N   0  0  0  0  0  0  0  0  0  0  0  0
    7.1743   -2.2907   24.7584 C   0  0  0  0  0  0  0  0  0  0  0  0
    6.0516   -1.6044   24.0383 O   0  0  0  0  0  0  0  0  0  0  0  0
    8.6246   -1.9137   24.6931 C   0  0  0  0  0  0  0  0  0  0  0  0
    7.7297   -1.0419   23.8631 C   0  0  0  0  0  0  0  0  0  0  0  0
    8.3121    0.0876   23.0661 N   0  0  0  0  0  0  0  0  0  0  0  0
    9.7894    0.3452   23.0991 C   0  0  0  0  0  0  0  0  0  0  0  0
   10.3717    1.4747   22.3021 O   0  0  0  0  0  0  0  0  0  0  0  0
   10.6844   -0.5266   23.9291 C   0  0  0  0  0  0  0  0  0  0  0  0
   12.1617   -0.2690   23.9621 C   0  0  0  0  0  0  0  0  0  0  0  0
   13.0567   -1.1408   24.7921 C   0  0  0  0  0  0  0  0  0  0  0  0
   12.4743   -2.2703   25.5891 C   0  0  0  0  0  0  0  0  0  0  0  0
   13.3693   -3.1421   26.4192 Cl  0  0  0  0  0  0  0  0  0  0  0  0
   10.9970   -2.5279   25.5561 C   0  0  0  0  0  0  0  0  0  0  0  0
   10.1020   -1.6561   24.7261 C   0  0  0  0  0  0  0  0  0  0  0  0
    5.7674   -4.1797   26.0223 C   0  0  0  0  0  0  0  0  0  0  0  0
    5.0723   -5.0276   24.9988 C   0  0  0  0  0  0  0  0  0  0  0  0
    3.7961   -5.7329   25.3506 N   0  0  0  0  0  0  0  0  0  0  0  0
    3.2150   -5.5902   26.7261 C   0  0  0  0  0  0  0  0  0  0  0  0
    3.9101   -4.7422   27.7497 C   0  0  0  0  0  0  0  0  0  0  0  0
    3.3290   -4.5995   29.1252 C   0  0  0  0  0  0  0  0  0  0  0  0
    4.0242   -3.7515   30.1488 C   0  0  0  0  0  0  0  0  0  0  0  0
    5.3004   -3.0463   29.7968 C   0  0  0  0  0  0  0  0  0  0  0  0
    5.8815   -3.1890   28.4213 C   0  0  0  0  0  0  0  0  0  0  0  0
    5.1864   -4.0369   27.3978 C   0  0  0  0  0  0  0  0  0  0  0  0
    7.4170    0.9594   22.2360 C   0  0  0  0  0  0  0  0  0  0  0  0
    6.6018    0.3592   21.1292 C   0  0  0  0  0  0  0  0  0  0  0  0
    5.2434    0.9117   20.8138 N   0  0  0  0  0  0  0  0  0  0  0  0
    4.8893    1.2707   19.4011 C   0  0  0  0  0  0  0  0  0  0  0  0
    3.5309    1.8232   19.0857 C   0  0  0  0  0  0  0  0  0  0  0  0
    2.5266    2.0167   20.1829 N   0  0  0  0  0  0  0  0  0  0  0  0
    2.8807    1.6577   21.5956 C   0  0  0  0  0  0  0  0  0  0  0  0
    4.2391    1.1052   21.9111 C   0  0  0  0  0  0  0  0  0  0  0  0
    4.3197    1.2874   20.5993 H   0  0  0  0  0  0  0  0  0  0  0  0
    1.1682    2.5692   19.8675 S   0  0  0  0  0  0  0  0  0  0  0  0
   -0.1902    3.1218   19.5520 C   0  0  0  0  0  0  0  0  0  0  0  0
    0.5477    1.5826   20.8117 O   0  0  0  0  0  0  0  0  0  0  0  0
    1.7888    3.5558   18.9233 O   0  0  0  0  0  0  0  0  0  0  0  0
  2  1  1  0  0  0
  2  3  1  0  0  0
  3  4  1  0  0  0
  4 19  1  0  0  0
 19 20  2  0  0  0
 20 21  1  0  0  0
 21 22  2  0  0  0
 22 23  1  0  0  0
 23 24  2  0  0  0
 24 25  1  0  0  0
 25 26  2  0  0  0
 26 27  1  0  0  0
 27 28  2  0  0  0
  4  5  1  0  0  0
  5  6  2  0  0  0
  5  7  1  0  0  0
  7  8  1  0  0  0
  8  9  1  0  0  0
  9 29  1  0  0  0
 29 30  1  0  0  0
 30 31  1  0  0  0
 31 32  1  0  0  0
 32 33  1  0  0  0
 33 34  1  0  0  0
 34 38  1  0  0  0
 38 39  1  0  0  0
 38 40  2  0  0  0
 38 41  2  0  0  0
 34 35  1  0  0  0
 35 36  1  0  0  0
  9 10  1  0  0  0
 10 11  2  0  0  0
 10 12  1  0  0  0
 12 13  2  0  0  0
 13 14  1  0  0  0
 14 15  2  0  0  0
 15 16  1  0  0  0
 15 17  1  0  0  0
 17 18  2  0  0  0
  7  2  1  0  0  0
 36 31  1  0  0  0
 18 12  1  0  0  0
 28 19  1  0  0  0
 18  7  1  0  0  0
 28 23  1  0  0  0
 31 37  1  0  0  0
M  CHG 1  31   1
M  END
> <minimizedAffinity>
-9.00586

> <CNNscore>
0.3419092298

> <CNNaffinity>
6.6698431969

> <CNN_VS>
2.2804808617

> <CNNaffinity_variance>
0.0894563347

$$$$



 41 46  0  0  0  0  0  0  0  0999 V2000
   10.6232   -1.1128   22.5223 C   0  0  0  0  0  0  0  0  0  0  0  0
    9.1263   -1.0651   22.4385 C   0  0  0  0  0  0  0  0  0  0  0  0
    8.6547   -0.4682   21.1457 C   0  0  0  0  0  0  0  0  0  0  0  0
    7.1547   -0.4642   21.1569 N   0  0  0  0  0  0  0  0  0  0  0  0
    6.6994   -1.0587   22.4566 C   0  0  0  0  0  0  0  0  0  0  0  0
    5.2754   -1.2484   22.8884 O   0  0  0  0  0  0  0  0  0  0  0  0
    7.9178   -1.4300   23.2487 C   0  0  0  0  0  0  0  0  0  0  0  0
    6.6231   -1.7397   23.9399 C   0  0  0  0  0  0  0  0  0  0  0  0
    6.6317   -2.3660   25.3028 N   0  0  0  0  0  0  0  0  0  0  0  0
    7.9349   -2.6826   25.9746 C   0  0  0  0  0  0  0  0  0  0  0  0
    7.9434   -3.3089   27.3376 O   0  0  0  0  0  0  0  0  0  0  0  0
    9.2297   -2.3730   25.2834 C   0  0  0  0  0  0  0  0  0  0  0  0
   10.5329   -2.6896   25.9552 C   0  0  0  0  0  0  0  0  0  0  0  0
   11.8276   -2.3799   25.2640 C   0  0  0  0  0  0  0  0  0  0  0  0
   11.8191   -1.7536   23.9010 C   0  0  0  0  0  0  0  0  0  0  0  0
   13.1139   -1.4439   23.2098 Cl  0  0  0  0  0  0  0  0  0  0  0  0
   10.5159   -1.4370   23.2293 C   0  0  0  0  0  0  0  0  0  0  0  0
    9.2212   -1.7466   23.9205 C   0  0  0  0  0  0  0  0  0  0  0  0
    6.2662    0.0448   20.0608 C   0  0  0  0  0  0  0  0  0  0  0  0
    6.3104   -0.5913   18.7032 C   0  0  0  0  0  0  0  0  0  0  0  0
    5.4218   -0.0822   17.6071 N   0  0  0  0  0  0  0  0  0  0  0  0
    4.4890    1.0629   17.8688 C   0  0  0  0  0  0  0  0  0  0  0  0
    4.4448    1.6990   19.2266 C   0  0  0  0  0  0  0  0  0  0  0  0
    3.5120    2.8442   19.4883 C   0  0  0  0  0  0  0  0  0  0  0  0
    3.4678    3.4803   20.8460 C   0  0  0  0  0  0  0  0  0  0  0  0
    4.3564    2.9712   21.9420 C   0  0  0  0  0  0  0  0  0  0  0  0
    5.2892    1.8261   21.6803 C   0  0  0  0  0  0  0  0  0  0  0  0
    5.3334    1.1900   20.3226 C   0  0  0  0  0  0  0  0  0  0  0  0
    5.3369   -2.6757   25.9940 C   0  0  0  0  0  0  0  0  0  0  0  0
    4.5009   -1.5633   26.5541 C   0  0  0  0  0  0  0  0  0  0  0  0
    5.0964   -0.5996   27.5373 N   0  0  0  0  0  0  0  0  0  0  0  0
    5.0417   -0.8973   29.0065 C   0  0  0  0  0  0  0  0  0  0  0  0
    5.6372    0.0664   29.9897 C   0  0  0  0  0  0  0  0  0  0  0  0
    6.2873    1.3278   29.5037 N   0  0  0  0  0  0  0  0  0  0  0  0
    6.3420    1.6255   28.0346 C   0  0  0  0  0  0  0  0  0  0  0  0
    5.7465    0.6618   27.0514 C   0  0  0  0  0  0  0  0  0  0  0  0
    5.5013    0.0557   28.2059 H   0  0  0  0  0  0  0  0  0  0  0  0
    6.8828    2.2915   30.4869 S   0  0  0  0  0  0  0  0  0  0  0  0
    7.4782    3.2553   31.4701 C   0  0  0  0  0  0  0  0  0  0  0  0
    7.0011    1.1884   31.4965 O   0  0  0  0  0  0  0  0  0  0  0  0
    6.7644    3.3945   29.4774 O   0  0  0  0  0  0  0  0  0  0  0  0
  2  1  1  0  0  0
  2  3  1  0  0  0
  3  4  1  0  0  0
  4 19  1  0  0  0
 19 20  2  0  0  0
 20 21  1  0  0  0
 21 22  2  0  0  0
 22 23  1  0  0  0
 23 24  2  0  0  0
 24 25  1  0  0  0
 25 26  2  0  0  0
 26 27  1  0  0  0
 27 28  2  0  0  0
  4  5  1  0  0  0
  5  6  2  0  0  0
  5  7  1  0  0  0
  7  8  1  0  0  0
  8  9  1  0  0  0
  9 29  1  0  0  0
 29 30  1  0  0  0
 30 31  1  0  0  0
 31 32  1  0  0  0
 32 33  1  0  0  0
 33 34  1  0  0  0
 34 38  1  0  0  0
 38 39  1  0  0  0
 38 40  2  0  0  0
 38 41  2  0  0  0
 34 35  1  0  0  0
 35 36  1  0  0  0
  9 10  1  0  0  0
 10 11  2  0  0  0
 10 12  1  0  0  0
 12 13  2  0  0  0
 13 14  1  0  0  0
 14 15  2  0  0  0
 15 16  1  0  0  0
 15 17  1  0  0  0
 17 18  2  0  0  0
  7  2  1  0  0  0
 36 31  1  0  0  0
 18 12  1  0  0  0
 28 19  1  0  0  0
 18  7  1  0  0  0
 28 23  1  0  0  0
 31 37  1  0  0  0
M  CHG 1  31   1
M  END
> <minimizedAffinity>
-8.56398

> <CNNscore>
0.3360073268

> <CNNaffinity>
6.5221009254

> <CNN_VS>
2.1914737225

> <CNNaffinity_variance>
0.1831088960

$$$$



 41 46  0  0  0  0  0  0  0  0999 V2000
   11.0098   -2.5017   24.8096 C   0  0  0  0  0  0  0  0  0  0  0  0
    9.6040   -2.7486   24.3480 C   0  0  0  0  0  0  0  0  0  0  0  0
    9.0576   -4.0412   24.8776 C   0  0  0  0  0  0  0  0  0  0  0  0
    7.6568   -4.1972   24.3643 N   0  0  0  0  0  0  0  0  0  0  0  0
    7.3376   -3.0010   23.5174 C   0  0  0  0  0  0  0  0  0  0  0  0
    6.0423   -2.7450   22.8056 O   0  0  0  0  0  0  0  0  0  0  0  0
    8.5410   -2.1057   23.5073 C   0  0  0  0  0  0  0  0  0  0  0  0
    7.3877   -1.5865   22.7009 C   0  0  0  0  0  0  0  0  0  0  0  0
    7.5072   -0.2781   21.9772 N   0  0  0  0  0  0  0  0  0  0  0  0
    8.7800    0.5112   22.0600 C   0  0  0  0  0  0  0  0  0  0  0  0
    8.8995    1.8197   21.3363 O   0  0  0  0  0  0  0  0  0  0  0  0
    9.9334   -0.0079   22.8664 C   0  0  0  0  0  0  0  0  0  0  0  0
   11.2062    0.7814   22.9491 C   0  0  0  0  0  0  0  0  0  0  0  0
   12.3596    0.2623   23.7555 C   0  0  0  0  0  0  0  0  0  0  0  0
   12.2401   -1.0461   24.4791 C   0  0  0  0  0  0  0  0  0  0  0  0
   13.3935   -1.5652   25.2856 Cl  0  0  0  0  0  0  0  0  0  0  0  0
   10.9673   -1.8354   24.3964 C   0  0  0  0  0  0  0  0  0  0  0  0
    9.8139   -1.3163   23.5900 C   0  0  0  0  0  0  0  0  0  0  0  0
    6.7368   -5.3474   24.6480 C   0  0  0  0  0  0  0  0  0  0  0  0
    7.0510   -6.7104   24.1064 C   0  0  0  0  0  0  0  0  0  0  0  0
    6.1310   -7.8606   24.3901 N   0  0  0  0  0  0  0  0  0  0  0  0
    4.8967   -7.6478   25.2154 C   0  0  0  0  0  0  0  0  0  0  0  0
    4.5825   -6.2847   25.7571 C   0  0  0  0  0  0  0  0  0  0  0  0
    3.3481   -6.0719   26.5825 C   0  0  0  0  0  0  0  0  0  0  0  0
    3.0339   -4.7088   27.1241 C   0  0  0  0  0  0  0  0  0  0  0  0
    3.9540   -3.5587   26.8404 C   0  0  0  0  0  0  0  0  0  0  0  0
    5.1883   -3.7715   26.0150 C   0  0  0  0  0  0  0  0  0  0  0  0
    5.5025   -5.1345   25.4734 C   0  0  0  0  0  0  0  0  0  0  0  0
    6.3538    0.2410   21.1708 C   0  0  0  0  0  0  0  0  0  0  0  0
    5.3601    1.1737   21.7974 C   0  0  0  0  0  0  0  0  0  0  0  0
    5.7534    2.5860   22.1143 N   0  0  0  0  0  0  0  0  0  0  0  0
    6.4543    2.8981   23.4033 C   0  0  0  0  0  0  0  0  0  0  0  0
    6.8477    4.3105   23.7203 C   0  0  0  0  0  0  0  0  0  0  0  0
    6.5402    5.4108   22.7482 N   0  0  0  0  0  0  0  0  0  0  0  0
    5.8394    5.0987   21.4593 C   0  0  0  0  0  0  0  0  0  0  0  0
    5.4460    3.6863   21.1423 C   0  0  0  0  0  0  0  0  0  0  0  0
    6.0209    3.5464   22.3298 H   0  0  0  0  0  0  0  0  0  0  0  0
    6.9336    6.8231   23.0652 S   0  0  0  0  0  0  0  0  0  0  0  0
    7.3270    8.2355   23.3822 C   0  0  0  0  0  0  0  0  0  0  0  0
    6.7210    7.2043   21.6301 O   0  0  0  0  0  0  0  0  0  0  0  0
    7.1462    6.4419   24.5002 O   0  0  0  0  0  0  0  0  0  0  0  0
  2  1  1  0  0  0
  2  3  1  0  0  0
  3  4  1  0  0  0
  4 19  1  0  0  0
 19 20  2  0  0  0
 20 21  1  0  0  0
 21 22  2  0  0  0
 22 23  1  0  0  0
 23 24  2  0  0  0
 24 25  1  0  0  0
 25 26  2  0  0  0
 26 27  1  0  0  0
 27 28  2  0  0  0
  4  5  1  0  0  0
  5  6  2  0  0  0
  5  7  1  0  0  0
  7  8  1  0  0  0
  8  9  1  0  0  0
  9 29  1  0  0  0
 29 30  1  0  0  0
 30 31  1  0  0  0
 31 32  1  0  0  0
 32 33  1  0  0  0
 33 34  1  0  0  0
 34 38  1  0  0  0
 38 39  1  0  0  0
 38 40  2  0  0  0
 38 41  2  0  0  0
 34 35  1  0  0  0
 35 36  1  0  0  0
  9 10  1  0  0  0
 10 11  2  0  0  0
 10 12  1  0  0  0
 12 13  2  0  0  0
 13 14  1  0  0  0
 14 15  2  0  0  0
 15 16  1  0  0  0
 15 17  1  0  0  0
 17 18  2  0  0  0
  7  2  1  0  0  0
 36 31  1  0  0  0
 18 12  1  0  0  0
 28 19  1  0  0  0
 18  7  1  0  0  0
 28 23  1  0  0  0
 31 37  1  0  0  0
M  CHG 1  31   1
M  END
> <minimizedAffinity>
-8.54776

> <CNNscore>
0.2793983221

> <CNNaffinity>
6.7498869896

> <CNN_VS>
1.8859070539

> <CNNaffinity_variance>
0.0398260765

$$$$



 41 46  0  0  0  0  0  0  0  0999 V2000
   10.9132   -2.5054   24.8572 C   0  0  0  0  0  0  0  0  0  0  0  0
    9.5195   -2.7802   24.3751 C   0  0  0  0  0  0  0  0  0  0  0  0
    8.9837   -4.0738   24.9131 C   0  0  0  0  0  0  0  0  0  0  0  0
    7.5945   -4.2583   24.3782 N   0  0  0  0  0  0  0  0  0  0  0  0
    7.2719   -3.0787   23.5096 C   0  0  0  0  0  0  0  0  0  0  0  0
    5.9853   -2.8524   22.7723 O   0  0  0  0  0  0  0  0  0  0  0  0
    8.4616   -2.1651   23.5077 C   0  0  0  0  0  0  0  0  0  0  0  0
    7.3146   -1.6748   22.6747 C   0  0  0  0  0  0  0  0  0  0  0  0
    7.4267   -0.3746   21.9353 N   0  0  0  0  0  0  0  0  0  0  0  0
    8.6857    0.4353   22.0288 C   0  0  0  0  0  0  0  0  0  0  0  0
    8.7978    1.7356   21.2893 O   0  0  0  0  0  0  0  0  0  0  0  0
    9.8328   -0.0550   22.8618 C   0  0  0  0  0  0  0  0  0  0  0  0
   11.0918    0.7549   22.9553 C   0  0  0  0  0  0  0  0  0  0  0  0
   12.2388    0.2646   23.7883 C   0  0  0  0  0  0  0  0  0  0  0  0
   12.1268   -1.0357   24.5278 C   0  0  0  0  0  0  0  0  0  0  0  0
   13.2739   -1.5260   25.3608 Cl  0  0  0  0  0  0  0  0  0  0  0  0
   10.8677   -1.8456   24.4343 C   0  0  0  0  0  0  0  0  0  0  0  0
    9.7207   -1.3552   23.6013 C   0  0  0  0  0  0  0  0  0  0  0  0
    6.6873   -5.4186   24.6620 C   0  0  0  0  0  0  0  0  0  0  0  0
    7.0082   -6.7747   24.1072 C   0  0  0  0  0  0  0  0  0  0  0  0
    6.1010   -7.9351   24.3910 N   0  0  0  0  0  0  0  0  0  0  0  0
    4.8729   -7.7392   25.2296 C   0  0  0  0  0  0  0  0  0  0  0  0
    4.5520   -6.3831   25.7844 C   0  0  0  0  0  0  0  0  0  0  0  0
    3.3237   -6.1872   26.6231 C   0  0  0  0  0  0  0  0  0  0  0  0
    3.0029   -4.8310   27.1778 C   0  0  0  0  0  0  0  0  0  0  0  0
    3.9101   -3.6708   26.8940 C   0  0  0  0  0  0  0  0  0  0  0  0
    5.1383   -3.8666   26.0554 C   0  0  0  0  0  0  0  0  0  0  0  0
    5.4592   -5.2227   25.5006 C   0  0  0  0  0  0  0  0  0  0  0  0
    6.2796    0.1158   21.1022 C   0  0  0  0  0  0  0  0  0  0  0  0
    6.2768    1.5234   20.5841 C   0  0  0  0  0  0  0  0  0  0  0  0
    4.9783    2.2493   20.3920 N   0  0  0  0  0  0  0  0  0  0  0  0
    4.0218    1.8058   19.3250 C   0  0  0  0  0  0  0  0  0  0  0  0
    2.7233    2.5317   19.1330 C   0  0  0  0  0  0  0  0  0  0  0  0
    2.3812    3.7011   20.0079 N   0  0  0  0  0  0  0  0  0  0  0  0
    3.3377    4.1446   21.0748 C   0  0  0  0  0  0  0  0  0  0  0  0
    4.6362    3.4187   21.2669 C   0  0  0  0  0  0  0  0  0  0  0  0
    4.0953    2.7429   20.2614 H   0  0  0  0  0  0  0  0  0  0  0  0
    1.0827    4.4270   19.8159 S   0  0  0  0  0  0  0  0  0  0  0  0
   -0.2159    5.1529   19.6238 C   0  0  0  0  0  0  0  0  0  0  0  0
    1.5473    5.5051   20.7496 O   0  0  0  0  0  0  0  0  0  0  0  0
    0.6181    3.3489   18.8821 O   0  0  0  0  0  0  0  0  0  0  0  0
  2  1  1  0  0  0
  2  3  1  0  0  0
  3  4  1  0  0  0
  4 19  1  0  0  0
 19 20  2  0  0  0
 20 21  1  0  0  0
 21 22  2  0  0  0
 22 23  1  0  0  0
 23 24  2  0  0  0
 24 25  1  0  0  0
 25 26  2  0  0  0
 26 27  1  0  0  0
 27 28  2  0  0  0
  4  5  1  0  0  0
  5  6  2  0  0  0
  5  7  1  0  0  0
  7  8  1  0  0  0
  8  9  1  0  0  0
  9 29  1  0  0  0
 29 30  1  0  0  0
 30 31  1  0  0  0
 31 32  1  0  0  0
 32 33  1  0  0  0
 33 34  1  0  0  0
 34 38  1  0  0  0
 38 39  1  0  0  0
 38 40  2  0  0  0
 38 41  2  0  0  0
 34 35  1  0  0  0
 35 36  1  0  0  0
  9 10  1  0  0  0
 10 11  2  0  0  0
 10 12  1  0  0  0
 12 13  2  0  0  0
 13 14  1  0  0  0
 14 15  2  0  0  0
 15 16  1  0  0  0
 15 17  1  0  0  0
 17 18  2  0  0  0
  7  2  1  0  0  0
 36 31  1  0  0  0
 18 12  1  0  0  0
 28 19  1  0  0  0
 18  7  1  0  0  0
 28 23  1  0  0  0
 31 37  1  0  0  0
M  CHG 1  31   1
M  END
> <minimizedAffinity>
-9.72836

> <CNNscore>
0.2649178505

> <CNNaffinity>
6.5320992470

> <CNN_VS>
1.7304697037

> <CNNaffinity_variance>
0.0293144044

$$$$



 41 46  0  0  0  0  0  0  0  0999 V2000
   10.7711   -3.1204   26.0622 C   0  0  0  0  0  0  0  0  0  0  0  0
    9.3655   -2.7335   25.7087 C   0  0  0  0  0  0  0  0  0  0  0  0
    8.3576   -3.6675   26.3101 C   0  0  0  0  0  0  0  0  0  0  0  0
    6.9917   -3.2005   25.9023 N   0  0  0  0  0  0  0  0  0  0  0  0
    7.1556   -1.9779   25.0488 C   0  0  0  0  0  0  0  0  0  0  0  0
    6.0469   -1.1834   24.4245 O   0  0  0  0  0  0  0  0  0  0  0  0
    8.6227   -1.6893   24.9291 C   0  0  0  0  0  0  0  0  0  0  0  0
    7.7479   -0.7180   24.1935 C   0  0  0  0  0  0  0  0  0  0  0  0
    8.3640    0.4158   23.4286 N   0  0  0  0  0  0  0  0  0  0  0  0
    9.8548    0.5782   23.3994 C   0  0  0  0  0  0  0  0  0  0  0  0
   10.4709    1.7120   22.6345 O   0  0  0  0  0  0  0  0  0  0  0  0
   10.7297   -0.3931   24.1350 C   0  0  0  0  0  0  0  0  0  0  0  0
   12.2206   -0.2307   24.1058 C   0  0  0  0  0  0  0  0  0  0  0  0
   13.0954   -1.2020   24.8414 C   0  0  0  0  0  0  0  0  0  0  0  0
   12.4793   -2.3358   25.6063 C   0  0  0  0  0  0  0  0  0  0  0  0
   13.3542   -3.3071   26.3420 Cl  0  0  0  0  0  0  0  0  0  0  0  0
   10.9884   -2.4982   25.6355 C   0  0  0  0  0  0  0  0  0  0  0  0
   10.1136   -1.5269   24.8999 C   0  0  0  0  0  0  0  0  0  0  0  0
    5.6905   -3.8432   26.2813 C   0  0  0  0  0  0  0  0  0  0  0  0
    5.1332   -3.6517   27.6606 C   0  0  0  0  0  0  0  0  0  0  0  0
    3.8319   -4.2944   28.0397 N   0  0  0  0  0  0  0  0  0  0  0  0
    3.0881   -5.1286   27.0393 C   0  0  0  0  0  0  0  0  0  0  0  0
    3.6454   -5.3201   25.6600 C   0  0  0  0  0  0  0  0  0  0  0  0
    2.9015   -6.1544   24.6596 C   0  0  0  0  0  0  0  0  0  0  0  0
    3.4589   -6.3459   23.2802 C   0  0  0  0  0  0  0  0  0  0  0  0
    4.7601   -5.7032   22.9013 C   0  0  0  0  0  0  0  0  0  0  0  0
    5.5040   -4.8689   23.9016 C   0  0  0  0  0  0  0  0  0  0  0  0
    4.9467   -4.6774   25.2809 C   0  0  0  0  0  0  0  0  0  0  0  0
    7.4891    1.3871   22.6929 C   0  0  0  0  0  0  0  0  0  0  0  0
    8.0427    2.7093   22.2510 C   0  0  0  0  0  0  0  0  0  0  0  0
    7.1938    3.9432   22.3338 N   0  0  0  0  0  0  0  0  0  0  0  0
    5.9173    4.0294   21.5507 C   0  0  0  0  0  0  0  0  0  0  0  0
    5.0685    5.2633   21.6334 C   0  0  0  0  0  0  0  0  0  0  0  0
    5.4961    6.4111   22.4993 N   0  0  0  0  0  0  0  0  0  0  0  0
    6.7725    6.3249   23.2824 C   0  0  0  0  0  0  0  0  0  0  0  0
    7.6214    5.0910   23.1997 C   0  0  0  0  0  0  0  0  0  0  0  0
    6.6166    4.7823   22.3901 H   0  0  0  0  0  0  0  0  0  0  0  0
    4.6472    7.6450   22.5821 S   0  0  0  0  0  0  0  0  0  0  0  0
    3.7983    8.8789   22.6648 C   0  0  0  0  0  0  0  0  0  0  0  0
    5.7967    8.3951   23.1870 O   0  0  0  0  0  0  0  0  0  0  0  0
    3.4978    6.8948   21.9772 O   0  0  0  0  0  0  0  0  0  0  0  0
  2  1  1  0  0  0
  2  3  1  0  0  0
  3  4  1  0  0  0
  4 19  1  0  0  0
 19 20  2  0  0  0
 20 21  1  0  0  0
 21 22  2  0  0  0
 22 23  1  0  0  0
 23 24  2  0  0  0
 24 25  1  0  0  0
 25 26  2  0  0  0
 26 27  1  0  0  0
 27 28  2  0  0  0
  4  5  1  0  0  0
  5  6  2  0  0  0
  5  7  1  0  0  0
  7  8  1  0  0  0
  8  9  1  0  0  0
  9 29  1  0  0  0
 29 30  1  0  0  0
 30 31  1  0  0  0
 31 32  1  0  0  0
 32 33  1  0  0  0
 33 34  1  0  0  0
 34 38  1  0  0  0
 38 39  1  0  0  0
 38 40  2  0  0  0
 38 41  2  0  0  0
 34 35  1  0  0  0
 35 36  1  0  0  0
  9 10  1  0  0  0
 10 11  2  0  0  0
 10 12  1  0  0  0
 12 13  2  0  0  0
 13 14  1  0  0  0
 14 15  2  0  0  0
 15 16  1  0  0  0
 15 17  1  0  0  0
 17 18  2  0  0  0
  7  2  1  0  0  0
 36 31  1  0  0  0
 18 12  1  0  0  0
 28 19  1  0  0  0
 18  7  1  0  0  0
 28 23  1  0  0  0
 31 37  1  0  0  0
M  CHG 1  31   1
M  END
> <minimizedAffinity>
-8.04261

> <CNNscore>
0.2472997457

> <CNNaffinity>
6.5286378860

> <CNN_VS>
1.6145304441

> <CNNaffinity_variance>
0.2063309401

$$$$



 41 46  0  0  0  0  0  0  0  0999 V2000
   10.5830   -0.2387   22.7439 C   0  0  0  0  0  0  0  0  0  0  0  0
    9.1134   -0.4710   22.5533 C   0  0  0  0  0  0  0  0  0  0  0  0
    8.6121    0.1242   21.2710 C   0  0  0  0  0  0  0  0  0  0  0  0
    7.1424   -0.1588   21.1719 N   0  0  0  0  0  0  0  0  0  0  0  0
    6.7354   -0.9290   22.3931 C   0  0  0  0  0  0  0  0  0  0  0  0
    5.3529   -1.4200   22.7055 O   0  0  0  0  0  0  0  0  0  0  0  0
    7.9535   -1.1220   23.2468 C   0  0  0  0  0  0  0  0  0  0  0  0
    6.7055   -1.7260   23.8191 C   0  0  0  0  0  0  0  0  0  0  0  0
    6.7550   -2.4439   25.1352 N   0  0  0  0  0  0  0  0  0  0  0  0
    8.0526   -2.5577   25.8791 C   0  0  0  0  0  0  0  0  0  0  0  0
    8.1021   -3.2756   27.1952 O   0  0  0  0  0  0  0  0  0  0  0  0
    9.3007   -1.9536   25.3068 C   0  0  0  0  0  0  0  0  0  0  0  0
   10.5982   -2.0674   26.0507 C   0  0  0  0  0  0  0  0  0  0  0  0
   11.8462   -1.4634   25.4784 C   0  0  0  0  0  0  0  0  0  0  0  0
   11.7967   -0.7455   24.1622 C   0  0  0  0  0  0  0  0  0  0  0  0
   13.0448   -0.1414   23.5900 Cl  0  0  0  0  0  0  0  0  0  0  0  0
   10.4991   -0.6317   23.4184 C   0  0  0  0  0  0  0  0  0  0  0  0
    9.2511   -1.2358   23.9907 C   0  0  0  0  0  0  0  0  0  0  0  0
    6.2384    0.2555   20.0489 C   0  0  0  0  0  0  0  0  0  0  0  0
    6.3754   -0.3861   18.7001 C   0  0  0  0  0  0  0  0  0  0  0  0
    5.4714    0.0283   17.5771 N   0  0  0  0  0  0  0  0  0  0  0  0
    4.4304    1.0843   17.8031 C   0  0  0  0  0  0  0  0  0  0  0  0
    4.2934    1.7260   19.1520 C   0  0  0  0  0  0  0  0  0  0  0  0
    3.2523    2.7821   19.3779 C   0  0  0  0  0  0  0  0  0  0  0  0
    3.1154    3.4237   20.7268 C   0  0  0  0  0  0  0  0  0  0  0  0
    4.0194    3.0093   21.8497 C   0  0  0  0  0  0  0  0  0  0  0  0
    5.0604    1.9532   21.6238 C   0  0  0  0  0  0  0  0  0  0  0  0
    5.1974    1.3116   20.2750 C   0  0  0  0  0  0  0  0  0  0  0  0
    5.5069   -3.0480   25.7075 C   0  0  0  0  0  0  0  0  0  0  0  0
    4.4561   -2.1654   26.3131 C   0  0  0  0  0  0  0  0  0  0  0  0
    4.7341   -0.7072   26.5281 N   0  0  0  0  0  0  0  0  0  0  0  0
    4.1246    0.3151   25.6151 C   0  0  0  0  0  0  0  0  0  0  0  0
    4.4027    1.7733   25.8301 C   0  0  0  0  0  0  0  0  0  0  0  0
    5.2902    2.2093   26.9580 N   0  0  0  0  0  0  0  0  0  0  0  0
    5.8997    1.1870   27.8709 C   0  0  0  0  0  0  0  0  0  0  0  0
    5.6217   -0.2713   27.6560 C   0  0  0  0  0  0  0  0  0  0  0  0
    4.9232    0.2844   26.6743 H   0  0  0  0  0  0  0  0  0  0  0  0
    5.5683    3.6675   27.1730 S   0  0  0  0  0  0  0  0  0  0  0  0
    5.8464    5.1258   27.3880 C   0  0  0  0  0  0  0  0  0  0  0  0
    4.7823    3.9992   25.9393 O   0  0  0  0  0  0  0  0  0  0  0  0
    6.3543    3.3357   28.4067 O   0  0  0  0  0  0  0  0  0  0  0  0
  2  1  1  0  0  0
  2  3  1  0  0  0
  3  4  1  0  0  0
  4 19  1  0  0  0
 19 20  2  0  0  0
 20 21  1  0  0  0
 21 22  2  0  0  0
 22 23  1  0  0  0
 23 24  2  0  0  0
 24 25  1  0  0  0
 25 26  2  0  0  0
 26 27  1  0  0  0
 27 28  2  0  0  0
  4  5  1  0  0  0
  5  6  2  0  0  0
  5  7  1  0  0  0
  7  8  1  0  0  0
  8  9  1  0  0  0
  9 29  1  0  0  0
 29 30  1  0  0  0
 30 31  1  0  0  0
 31 32  1  0  0  0
 32 33  1  0  0  0
 33 34  1  0  0  0
 34 38  1  0  0  0
 38 39  1  0  0  0
 38 40  2  0  0  0
 38 41  2  0  0  0
 34 35  1  0  0  0
 35 36  1  0  0  0
  9 10  1  0  0  0
 10 11  2  0  0  0
 10 12  1  0  0  0
 12 13  2  0  0  0
 13 14  1  0  0  0
 14 15  2  0  0  0
 15 16  1  0  0  0
 15 17  1  0  0  0
 17 18  2  0  0  0
  7  2  1  0  0  0
 36 31  1  0  0  0
 18 12  1  0  0  0
 28 19  1  0  0  0
 18  7  1  0  0  0
 28 23  1  0  0  0
 31 37  1  0  0  0
M  CHG 1  31   1
M  END
> <minimizedAffinity>
-8.10511

> <CNNscore>
0.2392454892

> <CNNaffinity>
6.5540380478

> <CNN_VS>
1.5680240393

> <CNNaffinity_variance>
0.2505683303

$$$$



 41 46  0  0  0  0  0  0  0  0999 V2000
    6.2677   -5.7707   24.9223 C   0  0  0  0  0  0  0  0  0  0  0  0
    6.7846   -4.3649   24.8392 C   0  0  0  0  0  0  0  0  0  0  0  0
    8.1860   -4.3121   24.3071 C   0  0  0  0  0  0  0  0  0  0  0  0
    8.6107   -2.8742   24.2619 N   0  0  0  0  0  0  0  0  0  0  0  0
    7.4718   -2.0384   24.7661 C   0  0  0  0  0  0  0  0  0  0  0  0
    7.4630   -0.5437   24.8914 O   0  0  0  0  0  0  0  0  0  0  0  0
    6.3431   -2.9597   25.1229 C   0  0  0  0  0  0  0  0  0  0  0  0
    6.0431   -1.5087   25.3561 C   0  0  0  0  0  0  0  0  0  0  0  0
    4.7076   -1.0971   25.9009 N   0  0  0  0  0  0  0  0  0  0  0  0
    3.6720   -2.1365   26.2125 C   0  0  0  0  0  0  0  0  0  0  0  0
    2.3364   -1.7249   26.7573 O   0  0  0  0  0  0  0  0  0  0  0  0
    3.9719   -3.5876   25.9792 C   0  0  0  0  0  0  0  0  0  0  0  0
    2.9363   -4.6270   26.2908 C   0  0  0  0  0  0  0  0  0  0  0  0
    3.2363   -6.0781   26.0576 C   0  0  0  0  0  0  0  0  0  0  0  0
    4.5719   -6.4897   25.5127 C   0  0  0  0  0  0  0  0  0  0  0  0
    4.8718   -7.9408   25.2795 Cl  0  0  0  0  0  0  0  0  0  0  0  0
    5.6075   -5.4503   25.2012 C   0  0  0  0  0  0  0  0  0  0  0  0
    5.3075   -3.9992   25.4344 C   0  0  0  0  0  0  0  0  0  0  0  0
    9.9409   -2.3620   23.7945 C   0  0  0  0  0  0  0  0  0  0  0  0
   10.0636   -1.7131   22.4479 C   0  0  0  0  0  0  0  0  0  0  0  0
   11.3937   -1.2009   21.9805 N   0  0  0  0  0  0  0  0  0  0  0  0
   12.6011   -1.3377   22.8600 C   0  0  0  0  0  0  0  0  0  0  0  0
   12.4784   -1.9866   24.2067 C   0  0  0  0  0  0  0  0  0  0  0  0
   13.6859   -2.1234   25.0862 C   0  0  0  0  0  0  0  0  0  0  0  0
   13.5630   -2.7724   26.4330 C   0  0  0  0  0  0  0  0  0  0  0  0
   12.2329   -3.2846   26.9002 C   0  0  0  0  0  0  0  0  0  0  0  0
   11.0255   -3.1478   26.0208 C   0  0  0  0  0  0  0  0  0  0  0  0
   11.1482   -2.4988   24.6741 C   0  0  0  0  0  0  0  0  0  0  0  0
    4.4076    0.3541   26.1342 C   0  0  0  0  0  0  0  0  0  0  0  0
    3.4472    1.0752   25.2357 C   0  0  0  0  0  0  0  0  0  0  0  0
    3.6697    1.0833   23.7523 N   0  0  0  0  0  0  0  0  0  0  0  0
    2.7002    1.7906   22.8523 C   0  0  0  0  0  0  0  0  0  0  0  0
    2.9228    1.7986   21.3689 C   0  0  0  0  0  0  0  0  0  0  0  0
    4.1148    1.0995   20.7855 N   0  0  0  0  0  0  0  0  0  0  0  0
    5.0842    0.3923   21.6855 C   0  0  0  0  0  0  0  0  0  0  0  0
    4.8617    0.3842   23.1689 C   0  0  0  0  0  0  0  0  0  0  0  0
    3.8210    1.0888   22.7436 H   0  0  0  0  0  0  0  0  0  0  0  0
    4.3373    1.1076   19.3022 S   0  0  0  0  0  0  0  0  0  0  0  0
    4.5599    1.1157   17.8188 C   0  0  0  0  0  0  0  0  0  0  0  0
    3.2174    2.0921   19.1395 O   0  0  0  0  0  0  0  0  0  0  0  0
    5.4573    0.1232   19.4649 O   0  0  0  0  0  0  0  0  0  0  0  0
  2  1  1  0  0  0
  2  3  1  0  0  0
  3  4  1  0  0  0
  4 19  1  0  0  0
 19 20  2  0  0  0
 20 21  1  0  0  0
 21 22  2  0  0  0
 22 23  1  0  0  0
 23 24  2  0  0  0
 24 25  1  0  0  0
 25 26  2  0  0  0
 26 27  1  0  0  0
 27 28  2  0  0  0
  4  5  1  0  0  0
  5  6  2  0  0  0
  5  7  1  0  0  0
  7  8  1  0  0  0
  8  9  1  0  0  0
  9 29  1  0  0  0
 29 30  1  0  0  0
 30 31  1  0  0  0
 31 32  1  0  0  0
 32 33  1  0  0  0
 33 34  1  0  0  0
 34 38  1  0  0  0
 38 39  1  0  0  0
 38 40  2  0  0  0
 38 41  2  0  0  0
 34 35  1  0  0  0
 35 36  1  0  0  0
  9 10  1  0  0  0
 10 11  2  0  0  0
 10 12  1  0  0  0
 12 13  2  0  0  0
 13 14  1  0  0  0
 14 15  2  0  0  0
 15 16  1  0  0  0
 15 17  1  0  0  0
 17 18  2  0  0  0
  7  2  1  0  0  0
 36 31  1  0  0  0
 18 12  1  0  0  0
 28 19  1  0  0  0
 18  7  1  0  0  0
 28 23  1  0  0  0
 31 37  1  0  0  0
M  CHG 1  31   1
M  END
> <minimizedAffinity>
-8.33685

> <CNNscore>
0.2277015448

> <CNNaffinity>
6.5143837929

> <CNN_VS>
1.4833352566

> <CNNaffinity_variance>
0.2267233133

$$$$
