


 41 46  0  0  0  0  0  0  0  0999 V2000
  -13.0834   -0.2757  -23.0763 C   0  0  0  0  0  0  0  0  0  0  0  0
  -12.3727    0.9063  -23.6662 C   0  0  0  0  0  0  0  0  0  0  0  0
  -13.2456    2.1256  -23.7036 C   0  0  0  0  0  0  0  0  0  0  0  0
  -12.4510    3.2462  -24.3058 N   0  0  0  0  0  0  0  0  0  0  0  0
  -11.0870    2.7195  -24.6407 C   0  0  0  0  0  0  0  0  0  0  0  0
   -9.9678    3.5017  -25.2618 O   0  0  0  0  0  0  0  0  0  0  0  0
  -11.0386    1.2733  -24.2454 C   0  0  0  0  0  0  0  0  0  0  0  0
   -9.7624    1.7849  -24.8451 C   0  0  0  0  0  0  0  0  0  0  0  0
   -8.5864    0.8669  -25.0015 N   0  0  0  0  0  0  0  0  0  0  0  0
   -8.6866   -0.5625  -24.5581 C   0  0  0  0  0  0  0  0  0  0  0  0
   -7.5106   -1.4804  -24.7145 O   0  0  0  0  0  0  0  0  0  0  0  0
   -9.9628   -1.0741  -23.9584 C   0  0  0  0  0  0  0  0  0  0  0  0
  -10.0630   -2.5035  -23.5150 C   0  0  0  0  0  0  0  0  0  0  0  0
  -11.3391   -3.0151  -22.9153 C   0  0  0  0  0  0  0  0  0  0  0  0
  -12.5151   -2.0971  -22.7589 C   0  0  0  0  0  0  0  0  0  0  0  0
  -13.7913   -2.6087  -22.1591 Cl  0  0  0  0  0  0  0  0  0  0  0  0
  -12.4149   -0.6677  -23.2022 C   0  0  0  0  0  0  0  0  0  0  0  0
  -11.1388   -0.1562  -23.8020 C   0  0  0  0  0  0  0  0  0  0  0  0
  -12.9353    4.6475  -24.5333 C   0  0  0  0  0  0  0  0  0  0  0  0
  -13.4475    5.4603  -23.3815 C   0  0  0  0  0  0  0  0  0  0  0  0
  -13.9317    6.8616  -23.6089 N   0  0  0  0  0  0  0  0  0  0  0  0
  -13.9038    7.4501  -24.9884 C   0  0  0  0  0  0  0  0  0  0  0  0
  -13.3916    6.6373  -26.1403 C   0  0  0  0  0  0  0  0  0  0  0  0
  -13.3637    7.2258  -27.5198 C   0  0  0  0  0  0  0  0  0  0  0  0
  -12.8514    6.4129  -28.6717 C   0  0  0  0  0  0  0  0  0  0  0  0
  -12.3672    5.0117  -28.4442 C   0  0  0  0  0  0  0  0  0  0  0  0
  -12.3951    4.4232  -27.0647 C   0  0  0  0  0  0  0  0  0  0  0  0
  -12.9073    5.2360  -25.9128 C   0  0  0  0  0  0  0  0  0  0  0  0
   -7.3102    1.3785  -25.6013 C   0  0  0  0  0  0  0  0  0  0  0  0
   -5.9896    0.9361  -25.0444 C   0  0  0  0  0  0  0  0  0  0  0  0
   -5.8085    0.8005  -23.5616 N   0  0  0  0  0  0  0  0  0  0  0  0
   -6.0914   -0.5097  -22.8881 C   0  0  0  0  0  0  0  0  0  0  0  0
   -5.9103   -0.6453  -21.4053 C   0  0  0  0  0  0  0  0  0  0  0  0
   -5.4463    0.5292  -20.5959 N   0  0  0  0  0  0  0  0  0  0  0  0
   -5.1633    1.8393  -21.2693 C   0  0  0  0  0  0  0  0  0  0  0  0
   -5.3444    1.9750  -22.7522 C   0  0  0  0  0  0  0  0  0  0  0  0
   -5.6853    0.7083  -22.5533 H   0  0  0  0  0  0  0  0  0  0  0  0
   -5.2651    0.3936  -19.1131 S   0  0  0  0  0  0  0  0  0  0  0  0
   -5.0840    0.2581  -17.6302 C   0  0  0  0  0  0  0  0  0  0  0  0
   -6.4574   -0.5144  -19.0505 O   0  0  0  0  0  0  0  0  0  0  0  0
   -4.0729    1.3016  -19.1757 O   0  0  0  0  0  0  0  0  0  0  0  0
  2  1  1  0  0  0
  2  3  1  0  0  0
  3  4  1  0  0  0
  4 19  1  0  0  0
 19 20  2  0  0  0
 20 21  1  0  0  0
 21 22  2  0  0  0
 22 23  1  0  0  0
 23 24  2  0  0  0
 24 25  1  0  0  0
 25 26  2  0  0  0
 26 27  1  0  0  0
 27 28  2  0  0  0
  4  5  1  0  0  0
  5  6  2  0  0  0
  5  7  1  0  0  0
  7  8  1  0  0  0
  8  9  1  0  0  0
  9 29  1  0  0  0
 29 30  1  0  0  0
 30 31  1  0  0  0
 31 32  1  0  0  0
 32 33  1  0  0  0
 33 34  1  0  0  0
 34 38  1  0  0  0
 38 39  1  0  0  0
 38 40  2  0  0  0
 38 41  2  0  0  0
 34 35  1  0  0  0
 35 36  1  0  0  0
  9 10  1  0  0  0
 10 11  2  0  0  0
 10 12  1  0  0  0
 12 13  2  0  0  0
 13 14  1  0  0  0
 14 15  2  0  0  0
 15 16  1  0  0  0
 15 17  1  0  0  0
 17 18  2  0  0  0
  7  2  1  0  0  0
 36 31  1  0  0  0
 18 12  1  0  0  0
 28 19  1  0  0  0
 18  7  1  0  0  0
 28 23  1  0  0  0
 31 37  1  0  0  0
M  CHG 1  31   1
M  END
> <minimizedAffinity>
-8.31987

> <CNNscore>
0.6255223751

> <CNNaffinity>
6.9638237953

> <CNN_VS>
4.3560276031

> <CNNaffinity_variance>
0.0421478786

$$$$



 41 46  0  0  0  0  0  0  0  0999 V2000
  -13.1684    0.2191  -23.3948 C   0  0  0  0  0  0  0  0  0  0  0  0
  -12.4072    1.4714  -23.7151 C   0  0  0  0  0  0  0  0  0  0  0  0
  -13.3145    2.5865  -24.1430 C   0  0  0  0  0  0  0  0  0  0  0  0
  -12.4654    3.7871  -24.4394 N   0  0  0  0  0  0  0  0  0  0  0  0
  -11.0334    3.4138  -24.1946 C   0  0  0  0  0  0  0  0  0  0  0  0
   -9.8458    4.3138  -24.3672 O   0  0  0  0  0  0  0  0  0  0  0  0
  -10.9973    1.9826  -23.7469 C   0  0  0  0  0  0  0  0  0  0  0  0
   -9.6471    2.6310  -23.8267 C   0  0  0  0  0  0  0  0  0  0  0  0
   -8.4172    1.8485  -23.4731 N   0  0  0  0  0  0  0  0  0  0  0  0
   -8.5376    0.4176  -23.0396 C   0  0  0  0  0  0  0  0  0  0  0  0
   -7.3077   -0.3649  -22.6859 O   0  0  0  0  0  0  0  0  0  0  0  0
   -9.8879   -0.2309  -22.9597 C   0  0  0  0  0  0  0  0  0  0  0  0
  -10.0082   -1.6618  -22.5262 C   0  0  0  0  0  0  0  0  0  0  0  0
  -11.3584   -2.3102  -22.4464 C   0  0  0  0  0  0  0  0  0  0  0  0
  -12.5883   -1.5277  -22.8001 C   0  0  0  0  0  0  0  0  0  0  0  0
  -13.9386   -2.1762  -22.7203 Cl  0  0  0  0  0  0  0  0  0  0  0  0
  -12.4680   -0.0968  -23.2336 C   0  0  0  0  0  0  0  0  0  0  0  0
  -11.1177    0.5516  -23.3134 C   0  0  0  0  0  0  0  0  0  0  0  0
  -12.9613    5.1258  -24.8997 C   0  0  0  0  0  0  0  0  0  0  0  0
  -13.6022    6.0651  -23.9216 C   0  0  0  0  0  0  0  0  0  0  0  0
  -14.0981    7.4038  -24.3819 N   0  0  0  0  0  0  0  0  0  0  0  0
  -13.9531    7.8031  -25.8204 C   0  0  0  0  0  0  0  0  0  0  0  0
  -13.3121    6.8638  -26.7987 C   0  0  0  0  0  0  0  0  0  0  0  0
  -13.1671    7.2632  -28.2373 C   0  0  0  0  0  0  0  0  0  0  0  0
  -12.5262    6.3238  -29.2154 C   0  0  0  0  0  0  0  0  0  0  0  0
  -12.0303    4.9852  -28.7550 C   0  0  0  0  0  0  0  0  0  0  0  0
  -12.1754    4.5858  -27.3165 C   0  0  0  0  0  0  0  0  0  0  0  0
  -12.8162    5.5251  -26.3383 C   0  0  0  0  0  0  0  0  0  0  0  0
   -7.0670    2.4970  -23.5529 C   0  0  0  0  0  0  0  0  0  0  0  0
   -6.5677    3.3328  -22.4118 C   0  0  0  0  0  0  0  0  0  0  0  0
   -5.1619    3.1635  -21.9170 N   0  0  0  0  0  0  0  0  0  0  0  0
   -4.8362    2.0702  -20.9429 C   0  0  0  0  0  0  0  0  0  0  0  0
   -3.4303    1.9009  -20.4481 C   0  0  0  0  0  0  0  0  0  0  0  0
   -2.3501    2.8248  -20.9274 N   0  0  0  0  0  0  0  0  0  0  0  0
   -2.6758    3.9180  -21.9014 C   0  0  0  0  0  0  0  0  0  0  0  0
   -4.0817    4.0874  -22.3962 C   0  0  0  0  0  0  0  0  0  0  0  0
   -4.2059    3.0484  -21.5805 H   0  0  0  0  0  0  0  0  0  0  0  0
   -0.9443    2.6555  -20.4326 S   0  0  0  0  0  0  0  0  0  0  0  0
    0.4616    2.4861  -19.9377 C   0  0  0  0  0  0  0  0  0  0  0  0
   -0.9908    4.0285  -19.8305 O   0  0  0  0  0  0  0  0  0  0  0  0
   -0.8978    1.2824  -21.0346 O   0  0  0  0  0  0  0  0  0  0  0  0
  2  1  1  0  0  0
  2  3  1  0  0  0
  3  4  1  0  0  0
  4 19  1  0  0  0
 19 20  2  0  0  0
 20 21  1  0  0  0
 21 22  2  0  0  0
 22 23  1  0  0  0
 23 24  2  0  0  0
 24 25  1  0  0  0
 25 26  2  0  0  0
 26 27  1  0  0  0
 27 28  2  0  0  0
  4  5  1  0  0  0
  5  6  2  0  0  0
  5  7  1  0  0  0
  7  8  1  0  0  0
  8  9  1  0  0  0
  9 29  1  0  0  0
 29 30  1  0  0  0
 30 31  1  0  0  0
 31 32  1  0  0  0
 32 33  1  0  0  0
 33 34  1  0  0  0
 34 38  1  0  0  0
 38 39  1  0  0  0
 38 40  2  0  0  0
 38 41  2  0  0  0
 34 35  1  0  0  0
 35 36  1  0  0  0
  9 10  1  0  0  0
 10 11  2  0  0  0
 10 12  1  0  0  0
 12 13  2  0  0  0
 13 14  1  0  0  0
 14 15  2  0  0  0
 15 16  1  0  0  0
 15 17  1  0  0  0
 17 18  2  0  0  0
  7  2  1  0  0  0
 36 31  1  0  0  0
 18 12  1  0  0  0
 28 19  1  0  0  0
 18  7  1  0  0  0
 28 23  1  0  0  0
 31 37  1  0  0  0
M  CHG 1  31   1
M  END
> <minimizedAffinity>
-8.73210

> <CNNscore>
0.4379149675

> <CNNaffinity>
6.5305147171

> <CNN_VS>
2.8598101139

> <CNNaffinity_variance>
0.0374445766

$$$$



 41 46  0  0  0  0  0  0  0  0999 V2000
  -10.9691    2.8076  -23.9843 C   0  0  0  0  0  0  0  0  0  0  0  0
   -9.7255    2.0158  -24.2611 C   0  0  0  0  0  0  0  0  0  0  0  0
   -8.5491    2.9002  -24.5507 C   0  0  0  0  0  0  0  0  0  0  0  0
   -7.3620    2.0214  -24.8128 N   0  0  0  0  0  0  0  0  0  0  0  0
   -7.8049    0.5940  -24.6851 C   0  0  0  0  0  0  0  0  0  0  0  0
   -6.9389   -0.6173  -24.8666 O   0  0  0  0  0  0  0  0  0  0  0  0
   -9.2656    0.5905  -24.3441 C   0  0  0  0  0  0  0  0  0  0  0  0
   -8.6632   -0.7782  -24.4614 C   0  0  0  0  0  0  0  0  0  0  0  0
   -9.5145   -1.9936  -24.2420 N   0  0  0  0  0  0  0  0  0  0  0  0
  -10.9681   -1.8403  -23.9053 C   0  0  0  0  0  0  0  0  0  0  0  0
  -11.8194   -3.0558  -23.6859 O   0  0  0  0  0  0  0  0  0  0  0  0
  -11.5706   -0.4716  -23.7881 C   0  0  0  0  0  0  0  0  0  0  0  0
  -13.0242   -0.3183  -23.4514 C   0  0  0  0  0  0  0  0  0  0  0  0
  -13.6266    1.0504  -23.3341 C   0  0  0  0  0  0  0  0  0  0  0  0
  -12.7753    2.2658  -23.5535 C   0  0  0  0  0  0  0  0  0  0  0  0
  -13.3777    3.6345  -23.4362 Cl  0  0  0  0  0  0  0  0  0  0  0  0
  -11.3217    2.1125  -23.8902 C   0  0  0  0  0  0  0  0  0  0  0  0
  -10.7193    0.7438  -24.0074 C   0  0  0  0  0  0  0  0  0  0  0  0
   -5.9756    2.4882  -25.1443 C   0  0  0  0  0  0  0  0  0  0  0  0
   -5.5919    2.7449  -26.5714 C   0  0  0  0  0  0  0  0  0  0  0  0
   -4.2055    3.2117  -26.9030 N   0  0  0  0  0  0  0  0  0  0  0  0
   -3.2028    3.4217  -25.8073 C   0  0  0  0  0  0  0  0  0  0  0  0
   -3.5865    3.1649  -24.3802 C   0  0  0  0  0  0  0  0  0  0  0  0
   -2.5837    3.3749  -23.2845 C   0  0  0  0  0  0  0  0  0  0  0  0
   -2.9675    3.1180  -21.8573 C   0  0  0  0  0  0  0  0  0  0  0  0
   -4.3539    2.6513  -21.5259 C   0  0  0  0  0  0  0  0  0  0  0  0
   -5.3566    2.4414  -22.6215 C   0  0  0  0  0  0  0  0  0  0  0  0
   -4.9729    2.6981  -24.0486 C   0  0  0  0  0  0  0  0  0  0  0  0
   -8.9120   -3.3624  -24.3593 C   0  0  0  0  0  0  0  0  0  0  0  0
   -8.2013   -3.9719  -23.1874 C   0  0  0  0  0  0  0  0  0  0  0  0
   -7.5628   -3.0897  -22.1559 N   0  0  0  0  0  0  0  0  0  0  0  0
   -6.0981   -3.2207  -21.8598 C   0  0  0  0  0  0  0  0  0  0  0  0
   -5.4597   -2.3385  -20.8282 C   0  0  0  0  0  0  0  0  0  0  0  0
   -6.2859   -1.3254  -20.0927 N   0  0  0  0  0  0  0  0  0  0  0  0
   -7.7505   -1.1944  -20.3888 C   0  0  0  0  0  0  0  0  0  0  0  0
   -8.3890   -2.0766  -21.4204 C   0  0  0  0  0  0  0  0  0  0  0  0
   -7.1287   -2.4899  -21.4544 H   0  0  0  0  0  0  0  0  0  0  0  0
   -5.6475   -0.4432  -19.0611 S   0  0  0  0  0  0  0  0  0  0  0  0
   -5.0090    0.4390  -18.0296 C   0  0  0  0  0  0  0  0  0  0  0  0
   -6.9137   -0.4669  -18.2573 O   0  0  0  0  0  0  0  0  0  0  0  0
   -4.3813   -0.4196  -19.8650 O   0  0  0  0  0  0  0  0  0  0  0  0
  2  1  1  0  0  0
  2  3  1  0  0  0
  3  4  1  0  0  0
  4 19  1  0  0  0
 19 20  2  0  0  0
 20 21  1  0  0  0
 21 22  2  0  0  0
 22 23  1  0  0  0
 23 24  2  0  0  0
 24 25  1  0  0  0
 25 26  2  0  0  0
 26 27  1  0  0  0
 27 28  2  0  0  0
  4  5  1  0  0  0
  5  6  2  0  0  0
  5  7  1  0  0  0
  7  8  1  0  0  0
  8  9  1  0  0  0
  9 29  1  0  0  0
 29 30  1  0  0  0
 30 31  1  0  0  0
 31 32  1  0  0  0
 32 33  1  0  0  0
 33 34  1  0  0  0
 34 38  1  0  0  0
 38 39  1  0  0  0
 38 40  2  0  0  0
 38 41  2  0  0  0
 34 35  1  0  0  0
 35 36  1  0  0  0
  9 10  1  0  0  0
 10 11  2  0  0  0
 10 12  1  0  0  0
 12 13  2  0  0  0
 13 14  1  0  0  0
 14 15  2  0  0  0
 15 16  1  0  0  0
 15 17  1  0  0  0
 17 18  2  0  0  0
  7  2  1  0  0  0
 36 31  1  0  0  0
 18 12  1  0  0  0
 28 19  1  0  0  0
 18  7  1  0  0  0
 28 23  1  0  0  0
 31 37  1  0  0  0
M  CHG 1  31   1
M  END
> <minimizedAffinity>
-8.40226

> <CNNscore>
0.2239638567

> <CNNaffinity>
6.4688849449

> <CNN_VS>
1.4487963915

> <CNNaffinity_variance>
0.3414383531

$$$$



 41 46  0  0  0  0  0  0  0  0999 V2000
   -7.1515    0.0648  -21.1457 C   0  0  0  0  0  0  0  0  0  0  0  0
   -8.3417   -0.0835  -22.0465 C   0  0  0  0  0  0  0  0  0  0  0  0
   -9.1374    1.1847  -22.1396 C   0  0  0  0  0  0  0  0  0  0  0  0
  -10.2984    0.9372  -23.0566 N   0  0  0  0  0  0  0  0  0  0  0  0
  -10.2201   -0.4839  -23.5303 C   0  0  0  0  0  0  0  0  0  0  0  0
  -11.1823   -1.1561  -24.4643 O   0  0  0  0  0  0  0  0  0  0  0  0
   -9.0109   -1.1147  -22.9060 C   0  0  0  0  0  0  0  0  0  0  0  0
   -9.7866   -2.0360  -23.8002 C   0  0  0  0  0  0  0  0  0  0  0  0
   -9.3271   -3.4498  -24.0003 N   0  0  0  0  0  0  0  0  0  0  0  0
   -8.0920   -3.9424  -23.3062 C   0  0  0  0  0  0  0  0  0  0  0  0
   -7.6326   -5.3562  -23.5062 O   0  0  0  0  0  0  0  0  0  0  0  0
   -7.3163   -3.0211  -22.4119 C   0  0  0  0  0  0  0  0  0  0  0  0
   -6.0812   -3.5137  -21.7178 C   0  0  0  0  0  0  0  0  0  0  0  0
   -5.3055   -2.5925  -20.8236 C   0  0  0  0  0  0  0  0  0  0  0  0
   -5.7649   -1.1787  -20.6236 C   0  0  0  0  0  0  0  0  0  0  0  0
   -4.9892   -0.2574  -19.7293 Cl  0  0  0  0  0  0  0  0  0  0  0  0
   -7.0000   -0.6861  -21.3177 C   0  0  0  0  0  0  0  0  0  0  0  0
   -7.7757   -1.6073  -22.2118 C   0  0  0  0  0  0  0  0  0  0  0  0
  -11.3524    1.9355  -23.4338 C   0  0  0  0  0  0  0  0  0  0  0  0
  -12.7144    1.8599  -22.8101 C   0  0  0  0  0  0  0  0  0  0  0  0
  -13.7685    2.8582  -23.1873 N   0  0  0  0  0  0  0  0  0  0  0  0
  -13.4605    3.9321  -24.1882 C   0  0  0  0  0  0  0  0  0  0  0  0
  -12.0984    4.0078  -24.8119 C   0  0  0  0  0  0  0  0  0  0  0  0
  -11.7904    5.0818  -25.8128 C   0  0  0  0  0  0  0  0  0  0  0  0
  -10.4283    5.1573  -26.4365 C   0  0  0  0  0  0  0  0  0  0  0  0
   -9.3743    4.1590  -26.0593 C   0  0  0  0  0  0  0  0  0  0  0  0
   -9.6823    3.0851  -25.0584 C   0  0  0  0  0  0  0  0  0  0  0  0
  -11.0443    3.0094  -24.4347 C   0  0  0  0  0  0  0  0  0  0  0  0
  -10.1029   -4.3710  -24.8945 C   0  0  0  0  0  0  0  0  0  0  0  0
   -9.9461   -4.2790  -26.3834 C   0  0  0  0  0  0  0  0  0  0  0  0
   -8.7987   -4.9679  -27.0608 N   0  0  0  0  0  0  0  0  0  0  0  0
   -9.0485   -6.1710  -27.9211 C   0  0  0  0  0  0  0  0  0  0  0  0
   -7.9011   -6.8599  -28.5985 C   0  0  0  0  0  0  0  0  0  0  0  0
   -6.5039   -6.3458  -28.4155 N   0  0  0  0  0  0  0  0  0  0  0  0
   -6.2541   -5.1427  -27.5552 C   0  0  0  0  0  0  0  0  0  0  0  0
   -7.4015   -4.4537  -26.8778 C   0  0  0  0  0  0  0  0  0  0  0  0
   -8.0185   -5.4364  -27.5214 H   0  0  0  0  0  0  0  0  0  0  0  0
   -5.3565   -7.0347  -29.0928 S   0  0  0  0  0  0  0  0  0  0  0  0
   -4.2091   -7.7237  -29.7702 C   0  0  0  0  0  0  0  0  0  0  0  0
   -4.9929   -5.7525  -29.7810 O   0  0  0  0  0  0  0  0  0  0  0  0
   -5.7202   -8.3169  -28.4046 O   0  0  0  0  0  0  0  0  0  0  0  0
  2  1  1  0  0  0
  2  3  1  0  0  0
  3  4  1  0  0  0
  4 19  1  0  0  0
 19 20  2  0  0  0
 20 21  1  0  0  0
 21 22  2  0  0  0
 22 23  1  0  0  0
 23 24  2  0  0  0
 24 25  1  0  0  0
 25 26  2  0  0  0
 26 27  1  0  0  0
 27 28  2  0  0  0
  4  5  1  0  0  0
  5  6  2  0  0  0
  5  7  1  0  0  0
  7  8  1  0  0  0
  8  9  1  0  0  0
  9 29  1  0  0  0
 29 30  1  0  0  0
 30 31  1  0  0  0
 31 32  1  0  0  0
 32 33  1  0  0  0
 33 34  1  0  0  0
 34 38  1  0  0  0
 38 39  1  0  0  0
 38 40  2  0  0  0
 38 41  2  0  0  0
 34 35  1  0  0  0
 35 36  1  0  0  0
  9 10  1  0  0  0
 10 11  2  0  0  0
 10 12  1  0  0  0
 12 13  2  0  0  0
 13 14  1  0  0  0
 14 15  2  0  0  0
 15 16  1  0  0  0
 15 17  1  0  0  0
 17 18  2  0  0  0
  7  2  1  0  0  0
 36 31  1  0  0  0
 18 12  1  0  0  0
 28 19  1  0  0  0
 18  7  1  0  0  0
 28 23  1  0  0  0
 31 37  1  0  0  0
M  CHG 1  31   1
M  END
> <minimizedAffinity>
-8.95062

> <CNNscore>
0.2054711133

> <CNNaffinity>
6.2561159134

> <CNN_VS>
1.2854510546

> <CNNaffinity_variance>
0.1441734284

$$$$



 41 46  0  0  0  0  0  0  0  0999 V2000
  -11.3905   -2.7357  -23.0733 C   0  0  0  0  0  0  0  0  0  0  0  0
   -9.9878   -2.6659  -23.6004 C   0  0  0  0  0  0  0  0  0  0  0  0
   -9.2952   -3.9947  -23.5321 C   0  0  0  0  0  0  0  0  0  0  0  0
   -7.9086   -3.8232  -24.0780 N   0  0  0  0  0  0  0  0  0  0  0  0
   -7.7444   -2.3885  -24.4837 C   0  0  0  0  0  0  0  0  0  0  0  0
   -6.5115   -1.7765  -25.0798 O   0  0  0  0  0  0  0  0  0  0  0  0
   -9.0294   -1.6732  -24.1886 C   0  0  0  0  0  0  0  0  0  0  0  0
   -7.9675   -0.7983  -24.7859 C   0  0  0  0  0  0  0  0  0  0  0  0
   -8.2453    0.6545  -25.0351 N   0  0  0  0  0  0  0  0  0  0  0  0
   -9.5850    1.2324  -24.6870 C   0  0  0  0  0  0  0  0  0  0  0  0
   -9.8628    2.6852  -24.9362 O   0  0  0  0  0  0  0  0  0  0  0  0
  -10.6469    0.3575  -24.0896 C   0  0  0  0  0  0  0  0  0  0  0  0
  -11.9866    0.9354  -23.7415 C   0  0  0  0  0  0  0  0  0  0  0  0
  -13.0485    0.0605  -23.1442 C   0  0  0  0  0  0  0  0  0  0  0  0
  -12.7707   -1.3923  -22.8950 C   0  0  0  0  0  0  0  0  0  0  0  0
  -13.8327   -2.2673  -22.2976 Cl  0  0  0  0  0  0  0  0  0  0  0  0
  -11.4310   -1.9703  -23.2431 C   0  0  0  0  0  0  0  0  0  0  0  0
  -10.3692   -1.0953  -23.8404 C   0  0  0  0  0  0  0  0  0  0  0  0
   -6.8688   -4.8978  -24.1972 C   0  0  0  0  0  0  0  0  0  0  0  0
   -6.0339   -5.2687  -23.0077 C   0  0  0  0  0  0  0  0  0  0  0  0
   -4.9941   -6.3433  -23.1269 N   0  0  0  0  0  0  0  0  0  0  0  0
   -4.7894   -7.0468  -24.4357 C   0  0  0  0  0  0  0  0  0  0  0  0
   -5.6244   -6.6758  -25.6253 C   0  0  0  0  0  0  0  0  0  0  0  0
   -5.4196   -7.3794  -26.9343 C   0  0  0  0  0  0  0  0  0  0  0  0
   -6.2546   -7.0083  -28.1238 C   0  0  0  0  0  0  0  0  0  0  0  0
   -7.2943   -5.9338  -28.0045 C   0  0  0  0  0  0  0  0  0  0  0  0
   -7.4991   -5.2303  -26.6956 C   0  0  0  0  0  0  0  0  0  0  0  0
   -6.6641   -5.6012  -25.5061 C   0  0  0  0  0  0  0  0  0  0  0  0
   -7.1833    1.5294  -25.6325 C   0  0  0  0  0  0  0  0  0  0  0  0
   -6.2441    2.2849  -24.7397 C   0  0  0  0  0  0  0  0  0  0  0  0
   -5.9980    1.8112  -23.3379 N   0  0  0  0  0  0  0  0  0  0  0  0
   -7.0399    0.9997  -22.6266 C   0  0  0  0  0  0  0  0  0  0  0  0
   -6.7937    0.5261  -21.2248 C   0  0  0  0  0  0  0  0  0  0  0  0
   -5.5057    0.8639  -20.5343 N   0  0  0  0  0  0  0  0  0  0  0  0
   -4.4638    1.6753  -21.2455 C   0  0  0  0  0  0  0  0  0  0  0  0
   -4.7099    2.1490  -22.6474 C   0  0  0  0  0  0  0  0  0  0  0  0
   -5.8306    1.4891  -22.3847 H   0  0  0  0  0  0  0  0  0  0  0  0
   -5.2596    0.3903  -19.1325 S   0  0  0  0  0  0  0  0  0  0  0  0
   -5.0134   -0.0834  -17.7306 C   0  0  0  0  0  0  0  0  0  0  0  0
   -3.9890    1.1862  -19.0866 O   0  0  0  0  0  0  0  0  0  0  0  0
   -6.5301   -0.4057  -19.1783 O   0  0  0  0  0  0  0  0  0  0  0  0
  2  1  1  0  0  0
  2  3  1  0  0  0
  3  4  1  0  0  0
  4 19  1  0  0  0
 19 20  2  0  0  0
 20 21  1  0  0  0
 21 22  2  0  0  0
 22 23  1  0  0  0
 23 24  2  0  0  0
 24 25  1  0  0  0
 25 26  2  0  0  0
 26 27  1  0  0  0
 27 28  2  0  0  0
  4  5  1  0  0  0
  5  6  2  0  0  0
  5  7  1  0  0  0
  7  8  1  0  0  0
  8  9  1  0  0  0
  9 29  1  0  0  0
 29 30  1  0  0  0
 30 31  1  0  0  0
 31 32  1  0  0  0
 32 33  1  0  0  0
 33 34  1  0  0  0
 34 38  1  0  0  0
 38 39  1  0  0  0
 38 40  2  0  0  0
 38 41  2  0  0  0
 34 35  1  0  0  0
 35 36  1  0  0  0
  9 10  1  0  0  0
 10 11  2  0  0  0
 10 12  1  0  0  0
 12 13  2  0  0  0
 13 14  1  0  0  0
 14 15  2  0  0  0
 15 16  1  0  0  0
 15 17  1  0  0  0
 17 18  2  0  0  0
  7  2  1  0  0  0
 36 31  1  0  0  0
 18 12  1  0  0  0
 28 19  1  0  0  0
 18  7  1  0  0  0
 28 23  1  0  0  0
 31 37  1  0  0  0
M  CHG 1  31   1
M  END
> <minimizedAffinity>
-8.08356

> <CNNscore>
0.2025950104

> <CNNaffinity>
6.5793733597

> <CNN_VS>
1.3329482079

> <CNNaffinity_variance>
0.1241897941

$$$$



 41 46  0  0  0  0  0  0  0  0999 V2000
   -6.3909    3.4046  -25.5524 C   0  0  0  0  0  0  0  0  0  0  0  0
   -7.6498    2.6905  -25.1583 C   0  0  0  0  0  0  0  0  0  0  0  0
   -8.7298    3.6444  -24.7413 C   0  0  0  0  0  0  0  0  0  0  0  0
   -9.9399    2.8402  -24.3685 N   0  0  0  0  0  0  0  0  0  0  0  0
   -9.6077    1.3894  -24.5551 C   0  0  0  0  0  0  0  0  0  0  0  0
  -10.5292    0.2339  -24.2985 O   0  0  0  0  0  0  0  0  0  0  0  0
   -8.1924    1.2969  -25.0432 C   0  0  0  0  0  0  0  0  0  0  0  0
   -8.8692   -0.0317  -24.8790 C   0  0  0  0  0  0  0  0  0  0  0  0
   -8.1268   -1.2959  -25.1963 N   0  0  0  0  0  0  0  0  0  0  0  0
   -6.7077   -1.2315  -25.6779 C   0  0  0  0  0  0  0  0  0  0  0  0
   -5.9653   -2.4957  -25.9952 O   0  0  0  0  0  0  0  0  0  0  0  0
   -6.0309    0.0970  -25.8421 C   0  0  0  0  0  0  0  0  0  0  0  0
   -4.6117    0.1613  -26.3236 C   0  0  0  0  0  0  0  0  0  0  0  0
   -3.9350    1.4898  -26.4879 C   0  0  0  0  0  0  0  0  0  0  0  0
   -4.6774    2.7540  -26.1705 C   0  0  0  0  0  0  0  0  0  0  0  0
   -4.0005    4.0826  -26.3348 Cl  0  0  0  0  0  0  0  0  0  0  0  0
   -6.0965    2.6897  -25.6890 C   0  0  0  0  0  0  0  0  0  0  0  0
   -6.7732    1.3612  -25.5248 C   0  0  0  0  0  0  0  0  0  0  0  0
  -11.2517    3.3903  -23.8926 C   0  0  0  0  0  0  0  0  0  0  0  0
  -12.0235    2.6718  -22.8259 C   0  0  0  0  0  0  0  0  0  0  0  0
  -13.3354    3.2219  -22.3500 N   0  0  0  0  0  0  0  0  0  0  0  0
  -13.8754    4.4904  -22.9410 C   0  0  0  0  0  0  0  0  0  0  0  0
  -13.1035    5.2089  -24.0078 C   0  0  0  0  0  0  0  0  0  0  0  0
  -13.6436    6.4775  -24.5987 C   0  0  0  0  0  0  0  0  0  0  0  0
  -12.8716    7.1959  -25.6655 C   0  0  0  0  0  0  0  0  0  0  0  0
  -11.5598    6.6458  -26.1413 C   0  0  0  0  0  0  0  0  0  0  0  0
  -11.0198    5.3773  -25.5504 C   0  0  0  0  0  0  0  0  0  0  0  0
  -11.7917    4.6588  -24.4836 C   0  0  0  0  0  0  0  0  0  0  0  0
   -8.8036   -2.6244  -25.0321 C   0  0  0  0  0  0  0  0  0  0  0  0
   -8.6561   -3.3878  -23.7494 C   0  0  0  0  0  0  0  0  0  0  0  0
   -7.9397   -2.7684  -22.5862 N   0  0  0  0  0  0  0  0  0  0  0  0
   -6.4985   -3.0975  -22.3314 C   0  0  0  0  0  0  0  0  0  0  0  0
   -5.7821   -2.4781  -21.1682 C   0  0  0  0  0  0  0  0  0  0  0  0
   -6.5068   -1.5296  -20.2598 N   0  0  0  0  0  0  0  0  0  0  0  0
   -7.9478   -1.2005  -20.5145 C   0  0  0  0  0  0  0  0  0  0  0  0
   -8.6643   -1.8199  -21.6778 C   0  0  0  0  0  0  0  0  0  0  0  0
   -7.4525   -2.3472  -21.7952 H   0  0  0  0  0  0  0  0  0  0  0  0
   -5.7904   -0.9102  -19.0966 S   0  0  0  0  0  0  0  0  0  0  0  0
   -5.0739   -0.2909  -17.9333 C   0  0  0  0  0  0  0  0  0  0  0  0
   -5.5397    0.3255  -19.9090 O   0  0  0  0  0  0  0  0  0  0  0  0
   -6.0411   -2.1460  -18.2841 O   0  0  0  0  0  0  0  0  0  0  0  0
  2  1  1  0  0  0
  2  3  1  0  0  0
  3  4  1  0  0  0
  4 19  1  0  0  0
 19 20  2  0  0  0
 20 21  1  0  0  0
 21 22  2  0  0  0
 22 23  1  0  0  0
 23 24  2  0  0  0
 24 25  1  0  0  0
 25 26  2  0  0  0
 26 27  1  0  0  0
 27 28  2  0  0  0
  4  5  1  0  0  0
  5  6  2  0  0  0
  5  7  1  0  0  0
  7  8  1  0  0  0
  8  9  1  0  0  0
  9 29  1  0  0  0
 29 30  1  0  0  0
 30 31  1  0  0  0
 31 32  1  0  0  0
 32 33  1  0  0  0
 33 34  1  0  0  0
 34 38  1  0  0  0
 38 39  1  0  0  0
 38 40  2  0  0  0
 38 41  2  0  0  0
 34 35  1  0  0  0
 35 36  1  0  0  0
  9 10  1  0  0  0
 10 11  2  0  0  0
 10 12  1  0  0  0
 12 13  2  0  0  0
 13 14  1  0  0  0
 14 15  2  0  0  0
 15 16  1  0  0  0
 15 17  1  0  0  0
 17 18  2  0  0  0
  7  2  1  0  0  0
 36 31  1  0  0  0
 18 12  1  0  0  0
 28 19  1  0  0  0
 18  7  1  0  0  0
 28 23  1  0  0  0
 31 37  1  0  0  0
M  CHG 1  31   1
M  END
> <minimizedAffinity>
-7.86139

> <CNNscore>
0.1976037472

> <CNNaffinity>
6.1662688255

> <CNN_VS>
1.2184778452

> <CNNaffinity_variance>
0.3454453349

$$$$



 41 46  0  0  0  0  0  0  0  0999 V2000
   -7.2639    0.0026  -21.1519 C   0  0  0  0  0  0  0  0  0  0  0  0
   -8.4567   -0.1334  -22.0512 C   0  0  0  0  0  0  0  0  0  0  0  0
   -9.2506    1.1370  -22.1274 C   0  0  0  0  0  0  0  0  0  0  0  0
  -10.4144    0.9020  -23.0441 N   0  0  0  0  0  0  0  0  0  0  0  0
  -10.3398   -0.5136  -23.5344 C   0  0  0  0  0  0  0  0  0  0  0  0
  -11.3056   -1.1735  -24.4735 O   0  0  0  0  0  0  0  0  0  0  0  0
   -9.1299   -1.1535  -22.9208 C   0  0  0  0  0  0  0  0  0  0  0  0
   -9.9094   -2.0631  -23.8235 C   0  0  0  0  0  0  0  0  0  0  0  0
   -9.4528   -3.4752  -24.0412 N   0  0  0  0  0  0  0  0  0  0  0  0
   -8.2166   -3.9778  -23.3562 C   0  0  0  0  0  0  0  0  0  0  0  0
   -7.7600   -5.3899  -23.5739 O   0  0  0  0  0  0  0  0  0  0  0  0
   -7.4370   -3.0682  -22.4535 C   0  0  0  0  0  0  0  0  0  0  0  0
   -6.2008   -3.5708  -21.7685 C   0  0  0  0  0  0  0  0  0  0  0  0
   -5.4213   -2.6612  -20.8658 C   0  0  0  0  0  0  0  0  0  0  0  0
   -5.8779   -1.2491  -20.6481 C   0  0  0  0  0  0  0  0  0  0  0  0
   -5.0982   -0.3395  -19.7453 Cl  0  0  0  0  0  0  0  0  0  0  0  0
   -7.1140   -0.7465  -21.3331 C   0  0  0  0  0  0  0  0  0  0  0  0
   -7.8936   -1.6561  -22.2358 C   0  0  0  0  0  0  0  0  0  0  0  0
  -11.4679    1.9063  -23.4068 C   0  0  0  0  0  0  0  0  0  0  0  0
  -12.8033    1.8721  -22.7246 C   0  0  0  0  0  0  0  0  0  0  0  0
  -13.8568    2.8763  -23.0873 N   0  0  0  0  0  0  0  0  0  0  0  0
  -13.5748    3.9149  -24.1322 C   0  0  0  0  0  0  0  0  0  0  0  0
  -12.2394    3.9491  -24.8145 C   0  0  0  0  0  0  0  0  0  0  0  0
  -11.9575    4.9877  -25.8595 C   0  0  0  0  0  0  0  0  0  0  0  0
  -10.6220    5.0219  -26.5417 C   0  0  0  0  0  0  0  0  0  0  0  0
   -9.5686    4.0176  -26.1790 C   0  0  0  0  0  0  0  0  0  0  0  0
   -9.8506    2.9791  -25.1340 C   0  0  0  0  0  0  0  0  0  0  0  0
  -11.1859    2.9448  -24.4518 C   0  0  0  0  0  0  0  0  0  0  0  0
  -10.2325   -4.3848  -24.9440 C   0  0  0  0  0  0  0  0  0  0  0  0
   -9.8234   -4.5494  -26.3777 C   0  0  0  0  0  0  0  0  0  0  0  0
   -8.4042   -4.8962  -26.7176 N   0  0  0  0  0  0  0  0  0  0  0  0
   -7.9804   -6.3333  -26.7915 C   0  0  0  0  0  0  0  0  0  0  0  0
   -6.5613   -6.6802  -27.1314 C   0  0  0  0  0  0  0  0  0  0  0  0
   -5.5658   -5.5900  -27.3974 N   0  0  0  0  0  0  0  0  0  0  0  0
   -5.9896   -4.1531  -27.3235 C   0  0  0  0  0  0  0  0  0  0  0  0
   -7.4088   -3.8061  -26.9836 C   0  0  0  0  0  0  0  0  0  0  0  0
   -7.4392   -5.1321  -26.9487 H   0  0  0  0  0  0  0  0  0  0  0  0
   -4.1467   -5.9369  -27.7373 S   0  0  0  0  0  0  0  0  0  0  0  0
   -2.7274   -6.2838  -28.0772 C   0  0  0  0  0  0  0  0  0  0  0  0
   -4.6137   -6.6239  -28.9862 O   0  0  0  0  0  0  0  0  0  0  0  0
   -3.6796   -5.2499  -26.4884 O   0  0  0  0  0  0  0  0  0  0  0  0
  2  1  1  0  0  0
  2  3  1  0  0  0
  3  4  1  0  0  0
  4 19  1  0  0  0
 19 20  2  0  0  0
 20 21  1  0  0  0
 21 22  2  0  0  0
 22 23  1  0  0  0
 23 24  2  0  0  0
 24 25  1  0  0  0
 25 26  2  0  0  0
 26 27  1  0  0  0
 27 28  2  0  0  0
  4  5  1  0  0  0
  5  6  2  0  0  0
  5  7  1  0  0  0
  7  8  1  0  0  0
  8  9  1  0  0  0
  9 29  1  0  0  0
 29 30  1  0  0  0
 30 31  1  0  0  0
 31 32  1  0  0  0
 32 33  1  0  0  0
 33 34  1  0  0  0
 34 38  1  0  0  0
 38 39  1  0  0  0
 38 40  2  0  0  0
 38 41  2  0  0  0
 34 35  1  0  0  0
 35 36  1  0  0  0
  9 10  1  0  0  0
 10 11  2  0  0  0
 10 12  1  0  0  0
 12 13  2  0  0  0
 13 14  1  0  0  0
 14 15  2  0  0  0
 15 16  1  0  0  0
 15 17  1  0  0  0
 17 18  2  0  0  0
  7  2  1  0  0  0
 36 31  1  0  0  0
 18 12  1  0  0  0
 28 19  1  0  0  0
 18  7  1  0  0  0
 28 23  1  0  0  0
 31 37  1  0  0  0
M  CHG 1  31   1
M  END
> <minimizedAffinity>
-8.42310

> <CNNscore>
0.1964390874

> <CNNaffinity>
6.2974033356

> <CNN_VS>
1.2370561361

> <CNNaffinity_variance>
0.2538591027

$$$$



 41 46  0  0  0  0  0  0  0  0999 V2000
  -12.0801    0.2215  -23.3328 C   0  0  0  0  0  0  0  0  0  0  0  0
  -10.8644    0.9013  -23.8897 C   0  0  0  0  0  0  0  0  0  0  0  0
  -11.0260    2.3919  -23.9363 C   0  0  0  0  0  0  0  0  0  0  0  0
   -9.7668    2.9771  -24.5039 N   0  0  0  0  0  0  0  0  0  0  0  0
   -8.8271    1.8482  -24.8081 C   0  0  0  0  0  0  0  0  0  0  0  0
   -7.4507    1.9792  -25.3898 O   0  0  0  0  0  0  0  0  0  0  0  0
   -9.5054    0.5653  -24.4284 C   0  0  0  0  0  0  0  0  0  0  0  0
   -8.1255    0.3835  -24.9877 C   0  0  0  0  0  0  0  0  0  0  0  0
   -7.5465   -0.9936  -25.1231 N   0  0  0  0  0  0  0  0  0  0  0  0
   -8.3474   -2.1889  -24.6992 C   0  0  0  0  0  0  0  0  0  0  0  0
   -7.7685   -3.5661  -24.8346 O   0  0  0  0  0  0  0  0  0  0  0  0
   -9.7274   -2.0072  -24.1399 C   0  0  0  0  0  0  0  0  0  0  0  0
  -10.5283   -3.2025  -23.7160 C   0  0  0  0  0  0  0  0  0  0  0  0
  -11.9082   -3.0207  -23.1568 C   0  0  0  0  0  0  0  0  0  0  0  0
  -12.4872   -1.6436  -23.0214 C   0  0  0  0  0  0  0  0  0  0  0  0
  -13.8672   -1.4618  -22.4621 Cl  0  0  0  0  0  0  0  0  0  0  0  0
  -11.6863   -0.4483  -23.4453 C   0  0  0  0  0  0  0  0  0  0  0  0
  -10.3064   -0.6301  -24.0045 C   0  0  0  0  0  0  0  0  0  0  0  0
   -9.4951    4.4351  -24.7281 C   0  0  0  0  0  0  0  0  0  0  0  0
  -10.2475    5.1840  -25.7877 C   0  0  0  0  0  0  0  0  0  0  0  0
   -9.9758    6.6420  -26.0118 N   0  0  0  0  0  0  0  0  0  0  0  0
   -8.9517    7.3512  -25.1762 C   0  0  0  0  0  0  0  0  0  0  0  0
   -8.1992    6.6022  -24.1165 C   0  0  0  0  0  0  0  0  0  0  0  0
   -7.1750    7.3114  -23.2809 C   0  0  0  0  0  0  0  0  0  0  0  0
   -6.4226    6.5624  -22.2212 C   0  0  0  0  0  0  0  0  0  0  0  0
   -6.6944    5.1044  -21.9972 C   0  0  0  0  0  0  0  0  0  0  0  0
   -7.7185    4.3953  -22.8328 C   0  0  0  0  0  0  0  0  0  0  0  0
   -8.4709    5.1442  -23.8924 C   0  0  0  0  0  0  0  0  0  0  0  0
   -6.1666   -1.1754  -25.6824 C   0  0  0  0  0  0  0  0  0  0  0  0
   -5.0327   -1.5500  -24.7746 C   0  0  0  0  0  0  0  0  0  0  0  0
   -5.0823   -1.1816  -23.3214 N   0  0  0  0  0  0  0  0  0  0  0  0
   -4.3249    0.0140  -22.8245 C   0  0  0  0  0  0  0  0  0  0  0  0
   -4.3745    0.3824  -21.3713 C   0  0  0  0  0  0  0  0  0  0  0  0
   -5.1815   -0.4448  -20.4150 N   0  0  0  0  0  0  0  0  0  0  0  0
   -5.9389   -1.6403  -20.9119 C   0  0  0  0  0  0  0  0  0  0  0  0
   -5.8894   -2.0088  -22.3651 C   0  0  0  0  0  0  0  0  0  0  0  0
   -5.1161   -0.9311  -22.3332 H   0  0  0  0  0  0  0  0  0  0  0  0
   -5.2311   -0.0764  -18.9618 S   0  0  0  0  0  0  0  0  0  0  0  0
   -5.2808    0.2920  -17.5085 C   0  0  0  0  0  0  0  0  0  0  0  0
   -4.4311    1.1597  -19.2478 O   0  0  0  0  0  0  0  0  0  0  0  0
   -6.0311   -1.3126  -18.6757 O   0  0  0  0  0  0  0  0  0  0  0  0
  2  1  1  0  0  0
  2  3  1  0  0  0
  3  4  1  0  0  0
  4 19  1  0  0  0
 19 20  2  0  0  0
 20 21  1  0  0  0
 21 22  2  0  0  0
 22 23  1  0  0  0
 23 24  2  0  0  0
 24 25  1  0  0  0
 25 26  2  0  0  0
 26 27  1  0  0  0
 27 28  2  0  0  0
  4  5  1  0  0  0
  5  6  2  0  0  0
  5  7  1  0  0  0
  7  8  1  0  0  0
  8  9  1  0  0  0
  9 29  1  0  0  0
 29 30  1  0  0  0
 30 31  1  0  0  0
 31 32  1  0  0  0
 32 33  1  0  0  0
 33 34  1  0  0  0
 34 38  1  0  0  0
 38 39  1  0  0  0
 38 40  2  0  0  0
 38 41  2  0  0  0
 34 35  1  0  0  0
 35 36  1  0  0  0
  9 10  1  0  0  0
 10 11  2  0  0  0
 10 12  1  0  0  0
 12 13  2  0  0  0
 13 14  1  0  0  0
 14 15  2  0  0  0
 15 16  1  0  0  0
 15 17  1  0  0  0
 17 18  2  0  0  0
  7  2  1  0  0  0
 36 31  1  0  0  0
 18 12  1  0  0  0
 28 19  1  0  0  0
 18  7  1  0  0  0
 28 23  1  0  0  0
 31 37  1  0  0  0
M  CHG 1  31   1
M  END
> <minimizedAffinity>
-8.13790

> <CNNscore>
0.1608094722

> <CNNaffinity>
6.2989473343

> <CNN_VS>
1.0129303932

> <CNNaffinity_variance>
0.1866283864

$$$$



 41 46  0  0  0  0  0  0  0  0999 V2000
  -10.3500    3.5700  -24.3436 C   0  0  0  0  0  0  0  0  0  0  0  0
   -9.4290    2.4047  -24.5536 C   0  0  0  0  0  0  0  0  0  0  0  0
   -8.0889    2.8342  -25.0729 C   0  0  0  0  0  0  0  0  0  0  0  0
   -7.2450    1.6067  -25.2493 N   0  0  0  0  0  0  0  0  0  0  0  0
   -8.0637    0.4186  -24.8391 C   0  0  0  0  0  0  0  0  0  0  0  0
   -7.6118   -1.0116  -24.8559 O   0  0  0  0  0  0  0  0  0  0  0  0
   -9.4134    0.9118  -24.4091 C   0  0  0  0  0  0  0  0  0  0  0  0
   -9.2501   -0.5764  -24.3176 C   0  0  0  0  0  0  0  0  0  0  0  0
  -10.3850   -1.4269  -23.8290 N   0  0  0  0  0  0  0  0  0  0  0  0
  -11.6833   -0.7890  -23.4319 C   0  0  0  0  0  0  0  0  0  0  0  0
  -12.8182   -1.6395  -22.9433 O   0  0  0  0  0  0  0  0  0  0  0  0
  -11.8466    0.6993  -23.5234 C   0  0  0  0  0  0  0  0  0  0  0  0
  -13.1449    1.3371  -23.1263 C   0  0  0  0  0  0  0  0  0  0  0  0
  -13.3082    2.8253  -23.2178 C   0  0  0  0  0  0  0  0  0  0  0  0
  -12.1733    3.6758  -23.7065 C   0  0  0  0  0  0  0  0  0  0  0  0
  -12.3366    5.1641  -23.7980 Cl  0  0  0  0  0  0  0  0  0  0  0  0
  -10.8750    3.0379  -24.1036 C   0  0  0  0  0  0  0  0  0  0  0  0
  -10.7117    1.5497  -24.0120 C   0  0  0  0  0  0  0  0  0  0  0  0
   -5.8309    1.5732  -25.7483 C   0  0  0  0  0  0  0  0  0  0  0  0
   -4.7237    2.1288  -24.9025 C   0  0  0  0  0  0  0  0  0  0  0  0
   -3.3096    2.0952  -25.4015 N   0  0  0  0  0  0  0  0  0  0  0  0
   -3.0026    1.5060  -26.7463 C   0  0  0  0  0  0  0  0  0  0  0  0
   -4.1098    0.9504  -27.5922 C   0  0  0  0  0  0  0  0  0  0  0  0
   -3.8028    0.3612  -28.9371 C   0  0  0  0  0  0  0  0  0  0  0  0
   -4.9101   -0.1944  -29.7828 C   0  0  0  0  0  0  0  0  0  0  0  0
   -6.3241   -0.1608  -29.2838 C   0  0  0  0  0  0  0  0  0  0  0  0
   -6.6311    0.4284  -27.9390 C   0  0  0  0  0  0  0  0  0  0  0  0
   -5.5240    0.9840  -27.0932 C   0  0  0  0  0  0  0  0  0  0  0  0
  -10.2217   -2.9152  -23.7375 C   0  0  0  0  0  0  0  0  0  0  0  0
   -8.9294   -3.4992  -23.2488 C   0  0  0  0  0  0  0  0  0  0  0  0
   -8.0612   -2.7172  -22.3081 N   0  0  0  0  0  0  0  0  0  0  0  0
   -8.6715   -1.6849  -21.4071 C   0  0  0  0  0  0  0  0  0  0  0  0
   -7.8034   -0.9029  -20.4664 C   0  0  0  0  0  0  0  0  0  0  0  0
   -6.3249   -1.1533  -20.4268 N   0  0  0  0  0  0  0  0  0  0  0  0
   -5.7147   -2.1856  -21.3278 C   0  0  0  0  0  0  0  0  0  0  0  0
   -6.5828   -2.9676  -22.2685 C   0  0  0  0  0  0  0  0  0  0  0  0
   -7.4709   -2.1855  -21.6685 H   0  0  0  0  0  0  0  0  0  0  0  0
   -5.4568   -0.3714  -19.4861 S   0  0  0  0  0  0  0  0  0  0  0  0
   -4.5887    0.4106  -18.5454 C   0  0  0  0  0  0  0  0  0  0  0  0
   -4.5371   -0.0281  -20.6203 O   0  0  0  0  0  0  0  0  0  0  0  0
   -6.3765   -0.7146  -18.3520 O   0  0  0  0  0  0  0  0  0  0  0  0
  2  1  1  0  0  0
  2  3  1  0  0  0
  3  4  1  0  0  0
  4 19  1  0  0  0
 19 20  2  0  0  0
 20 21  1  0  0  0
 21 22  2  0  0  0
 22 23  1  0  0  0
 23 24  2  0  0  0
 24 25  1  0  0  0
 25 26  2  0  0  0
 26 27  1  0  0  0
 27 28  2  0  0  0
  4  5  1  0  0  0
  5  6  2  0  0  0
  5  7  1  0  0  0
  7  8  1  0  0  0
  8  9  1  0  0  0
  9 29  1  0  0  0
 29 30  1  0  0  0
 30 31  1  0  0  0
 31 32  1  0  0  0
 32 33  1  0  0  0
 33 34  1  0  0  0
 34 38  1  0  0  0
 38 39  1  0  0  0
 38 40  2  0  0  0
 38 41  2  0  0  0
 34 35  1  0  0  0
 35 36  1  0  0  0
  9 10  1  0  0  0
 10 11  2  0  0  0
 10 12  1  0  0  0
 12 13  2  0  0  0
 13 14  1  0  0  0
 14 15  2  0  0  0
 15 16  1  0  0  0
 15 17  1  0  0  0
 17 18  2  0  0  0
  7  2  1  0  0  0
 36 31  1  0  0  0
 18 12  1  0  0  0
 28 19  1  0  0  0
 18  7  1  0  0  0
 28 23  1  0  0  0
 31 37  1  0  0  0
M  CHG 1  31   1
M  END
> <minimizedAffinity>
-7.84431

> <CNNscore>
0.1416480243

> <CNNaffinity>
6.3593077660

> <CNN_VS>
0.9007833600

> <CNNaffinity_variance>
0.1679748744

$$$$
