


 35 40  0  0  0  0  0  0  0  0999 V2000
   11.4925   -0.2675   23.4939 N   0  0  0  0  0  0  0  0  0  0  0  0
   11.9709   -1.2250   24.5448 C   0  0  0  0  0  0  0  0  0  0  0  0
   13.2802   -1.1525   25.2733 O   0  0  0  0  0  0  0  0  0  0  0  0
   10.9103   -2.2677   24.7394 C   0  0  0  0  0  0  0  0  0  0  0  0
   10.8306   -3.4617   25.6437 C   0  0  0  0  0  0  0  0  0  0  0  0
    9.6169   -4.3427   25.6174 C   0  0  0  0  0  0  0  0  0  0  0  0
    8.4829   -4.0297   24.6867 C   0  0  0  0  0  0  0  0  0  0  0  0
    7.2691   -4.9107   24.6604 Cl  0  0  0  0  0  0  0  0  0  0  0  0
    8.5626   -2.8356   23.7824 C   0  0  0  0  0  0  0  0  0  0  0  0
    9.7763   -1.9546   23.8087 C   0  0  0  0  0  0  0  0  0  0  0  0
   10.1362   -0.7185   23.0390 C   0  0  0  0  0  0  0  0  0  0  0  0
    8.8224   -1.3993   22.7930 C   0  0  0  0  0  0  0  0  0  0  0  0
    8.3440   -0.4418   21.7422 C   0  0  0  0  0  0  0  0  0  0  0  0
    9.0908    0.7562   21.2352 O   0  0  0  0  0  0  0  0  0  0  0  0
    6.9876   -0.8927   21.2872 N   0  0  0  0  0  0  0  0  0  0  0  0
    6.6278   -2.1289   22.0569 C   0  0  0  0  0  0  0  0  0  0  0  0
    7.7618   -2.4420   22.9876 C   0  0  0  0  0  0  0  0  0  0  0  0
    7.8241   -3.5952   23.9446 C   0  0  0  0  0  0  0  0  0  0  0  0
    6.6807   -4.5623   24.0292 F   0  0  0  0  0  0  0  0  0  0  0  0
    6.1398   -0.2248   20.2454 C   0  0  0  0  0  0  0  0  0  0  0  0
    6.5082   -0.3346   18.7955 C   0  0  0  0  0  0  0  0  0  0  0  0
    5.6605    0.3334   17.7537 N   0  0  0  0  0  0  0  0  0  0  0  0
    4.4445    1.1110   18.1619 C   0  0  0  0  0  0  0  0  0  0  0  0
    4.0761    1.2207   19.6118 C   0  0  0  0  0  0  0  0  0  0  0  0
    2.8602    1.9984   20.0200 C   0  0  0  0  0  0  0  0  0  0  0  0
    2.4918    2.1081   21.4700 C   0  0  0  0  0  0  0  0  0  0  0  0
    3.3396    1.4401   22.5117 C   0  0  0  0  0  0  0  0  0  0  0  0
    4.5556    0.6625   22.1036 C   0  0  0  0  0  0  0  0  0  0  0  0
    4.9238    0.5528   20.6536 C   0  0  0  0  0  0  0  0  0  0  0  0
   12.2393    0.9306   22.9870 C   0  0  0  0  0  0  0  0  0  0  0  0
   11.8642    4.8812   22.9449 C   0  0  0  0  0  0  0  0  0  0  0  0
   12.4662    3.5131   22.8178 N   0  0  0  0  0  0  0  0  0  0  0  0
   11.6373    2.2986   23.1141 C   0  0  0  0  0  0  0  0  0  0  0  0
   10.2065    2.4520   23.5376 O   0  0  0  0  0  0  0  0  0  0  0  0
   13.4052    3.4125   22.5398 H   0  0  0  0  0  0  0  0  0  0  0  0
 31 32  1  0  0  0
 32 33  1  0  0  0
 33 34  2  0  0  0
 33 30  1  0  0  0
 30  1  1  0  0  0
  1  2  1  0  0  0
  2  3  2  0  0  0
  2  4  1  0  0  0
  4  5  2  0  0  0
  5  6  1  0  0  0
  6  7  2  0  0  0
  7  8  1  0  0  0
  7  9  1  0  0  0
 10  9  1  0  0  0
 10 11  1  0  0  0
 11 12  1  0  0  0
 12 13  1  0  0  0
 13 14  2  0  0  0
 13 15  1  0  0  0
 15 20  1  0  0  0
 20 21  2  0  0  0
 21 22  1  0  0  0
 22 23  2  0  0  0
 23 24  1  0  0  0
 24 25  2  0  0  0
 25 26  1  0  0  0
 26 27  2  0  0  0
 27 28  1  0  0  0
 28 29  2  0  0  0
 15 16  1  0  0  0
 16 17  1  0  0  0
 17 18  2  0  0  0
 18 19  1  0  0  0
 11  1  1  0  0  0
 17 12  1  0  0  0
 10  4  1  0  0  0
 29 20  1  0  0  0
 12 10  1  0  0  0
 29 24  1  0  0  0
 32 35  1  0  0  0
M  END
> <minimizedAffinity>
-10.07913

> <CNNscore>
0.6653888226

> <CNNaffinity>
6.8986005783

> <CNN_VS>
4.5902519226

> <CNNaffinity_variance>
0.1356683671

$$$$



 35 40  0  0  0  0  0  0  0  0999 V2000
    9.1048    0.8841   23.5213 N   0  0  0  0  0  0  0  0  0  0  0  0
   10.5866    1.0535   23.3613 C   0  0  0  0  0  0  0  0  0  0  0  0
   11.2725    2.1673   22.6272 O   0  0  0  0  0  0  0  0  0  0  0  0
   11.2620   -0.0865   24.0643 C   0  0  0  0  0  0  0  0  0  0  0  0
   12.7087   -0.4416   24.2399 C   0  0  0  0  0  0  0  0  0  0  0  0
   13.0911   -1.6707   25.0100 C   0  0  0  0  0  0  0  0  0  0  0  0
   12.0267   -2.5447   25.6045 C   0  0  0  0  0  0  0  0  0  0  0  0
   12.4092   -3.7739   26.3746 Cl  0  0  0  0  0  0  0  0  0  0  0  0
   10.5800   -2.1896   25.4288 C   0  0  0  0  0  0  0  0  0  0  0  0
   10.1977   -0.9605   24.6587 C   0  0  0  0  0  0  0  0  0  0  0  0
    8.8645   -0.3606   24.3231 C   0  0  0  0  0  0  0  0  0  0  0  0
    8.9370   -1.6251   25.1266 C   0  0  0  0  0  0  0  0  0  0  0  0
    7.4552   -1.7945   25.2866 C   0  0  0  0  0  0  0  0  0  0  0  0
    6.3992   -0.8798   24.7406 O   0  0  0  0  0  0  0  0  0  0  0  0
    7.2149   -3.0393   26.0885 N   0  0  0  0  0  0  0  0  0  0  0  0
    8.5482   -3.6391   26.4241 C   0  0  0  0  0  0  0  0  0  0  0  0
    9.6125   -2.7651   25.8296 C   0  0  0  0  0  0  0  0  0  0  0  0
   11.0924   -2.9914   25.9220 C   0  0  0  0  0  0  0  0  0  0  0  0
   11.6242   -4.1825   26.6626 F   0  0  0  0  0  0  0  0  0  0  0  0
    5.8763   -3.5878   26.4851 C   0  0  0  0  0  0  0  0  0  0  0  0
    5.0810   -4.4035   25.5092 C   0  0  0  0  0  0  0  0  0  0  0  0
    3.7425   -4.9521   25.9059 N   0  0  0  0  0  0  0  0  0  0  0  0
    3.1992   -4.6850   27.2782 C   0  0  0  0  0  0  0  0  0  0  0  0
    3.9944   -3.8693   28.2540 C   0  0  0  0  0  0  0  0  0  0  0  0
    3.4511   -3.6021   29.6264 C   0  0  0  0  0  0  0  0  0  0  0  0
    4.2464   -2.7864   30.6023 C   0  0  0  0  0  0  0  0  0  0  0  0
    5.5850   -2.2378   30.2056 C   0  0  0  0  0  0  0  0  0  0  0  0
    6.1283   -2.5050   28.8333 C   0  0  0  0  0  0  0  0  0  0  0  0
    5.3330   -3.3207   27.8575 C   0  0  0  0  0  0  0  0  0  0  0  0
    8.0487    1.7988   22.9752 C   0  0  0  0  0  0  0  0  0  0  0  0
    8.3190    5.7384   23.3712 C   0  0  0  0  0  0  0  0  0  0  0  0
    8.4769    4.3560   22.8105 N   0  0  0  0  0  0  0  0  0  0  0  0
    7.8909    3.1811   23.5358 C   0  0  0  0  0  0  0  0  0  0  0  0
    7.1469    3.3885   24.8218 O   0  0  0  0  0  0  0  0  0  0  0  0
    8.9652    4.2199   21.9666 H   0  0  0  0  0  0  0  0  0  0  0  0
 31 32  1  0  0  0
 32 33  1  0  0  0
 33 34  2  0  0  0
 33 30  1  0  0  0
 30  1  1  0  0  0
  1  2  1  0  0  0
  2  3  2  0  0  0
  2  4  1  0  0  0
  4  5  2  0  0  0
  5  6  1  0  0  0
  6  7  2  0  0  0
  7  8  1  0  0  0
  7  9  1  0  0  0
 10  9  1  0  0  0
 10 11  1  0  0  0
 11 12  1  0  0  0
 12 13  1  0  0  0
 13 14  2  0  0  0
 13 15  1  0  0  0
 15 20  1  0  0  0
 20 21  2  0  0  0
 21 22  1  0  0  0
 22 23  2  0  0  0
 23 24  1  0  0  0
 24 25  2  0  0  0
 25 26  1  0  0  0
 26 27  2  0  0  0
 27 28  1  0  0  0
 28 29  2  0  0  0
 15 16  1  0  0  0
 16 17  1  0  0  0
 17 18  2  0  0  0
 18 19  1  0  0  0
 11  1  1  0  0  0
 17 12  1  0  0  0
 10  4  1  0  0  0
 29 20  1  0  0  0
 12 10  1  0  0  0
 29 24  1  0  0  0
 32 35  1  0  0  0
M  END
> <minimizedAffinity>
-8.27049

> <CNNscore>
0.4155239761

> <CNNaffinity>
6.5711798668

> <CNN_VS>
2.7304828167

> <CNNaffinity_variance>
0.0248177163

$$$$



 35 40  0  0  0  0  0  0  0  0999 V2000
    6.3025   -0.9778   21.5950 N   0  0  0  0  0  0  0  0  0  0  0  0
    6.2351   -2.3828   22.1160 C   0  0  0  0  0  0  0  0  0  0  0  0
    5.1750   -3.3933   21.7921 O   0  0  0  0  0  0  0  0  0  0  0  0
    7.4140   -2.5999   23.0177 C   0  0  0  0  0  0  0  0  0  0  0  0
    7.8655   -3.7906   23.8104 C   0  0  0  0  0  0  0  0  0  0  0  0
    9.1130   -3.7104   24.6394 C   0  0  0  0  0  0  0  0  0  0  0  0
    9.9090   -2.4396   24.6758 C   0  0  0  0  0  0  0  0  0  0  0  0
   11.1565   -2.3595   25.5048 Cl  0  0  0  0  0  0  0  0  0  0  0  0
    9.4575   -1.2489   23.8831 C   0  0  0  0  0  0  0  0  0  0  0  0
    8.2100   -1.3291   23.0540 C   0  0  0  0  0  0  0  0  0  0  0  0
    7.5231   -0.3266   22.1748 C   0  0  0  0  0  0  0  0  0  0  0  0
    8.7847    0.0473   22.8949 C   0  0  0  0  0  0  0  0  0  0  0  0
    8.8521    1.4523   22.3739 C   0  0  0  0  0  0  0  0  0  0  0  0
    7.8712    2.0935   21.4376 O   0  0  0  0  0  0  0  0  0  0  0  0
   10.0727    2.1036   22.9537 N   0  0  0  0  0  0  0  0  0  0  0  0
   10.7596    1.1010   23.8330 C   0  0  0  0  0  0  0  0  0  0  0  0
    9.9636   -0.1698   23.7966 C   0  0  0  0  0  0  0  0  0  0  0  0
   10.2893   -1.4354   24.5328 C   0  0  0  0  0  0  0  0  0  0  0  0
   11.5091   -1.5043   25.4029 F   0  0  0  0  0  0  0  0  0  0  0  0
   10.5267    3.5104   22.6989 C   0  0  0  0  0  0  0  0  0  0  0  0
   11.8660    3.7645   22.0730 C   0  0  0  0  0  0  0  0  0  0  0  0
   12.3200    5.1713   21.8183 N   0  0  0  0  0  0  0  0  0  0  0  0
   11.4347    6.3239   22.1894 C   0  0  0  0  0  0  0  0  0  0  0  0
   10.0954    6.0698   22.8152 C   0  0  0  0  0  0  0  0  0  0  0  0
    9.2101    7.2224   23.1863 C   0  0  0  0  0  0  0  0  0  0  0  0
    7.8708    6.9682   23.8123 C   0  0  0  0  0  0  0  0  0  0  0  0
    7.4168    5.5614   24.0670 C   0  0  0  0  0  0  0  0  0  0  0  0
    8.3021    4.4088   23.6959 C   0  0  0  0  0  0  0  0  0  0  0  0
    9.6414    4.6630   23.0700 C   0  0  0  0  0  0  0  0  0  0  0  0
    5.3216   -0.3366   20.6587 C   0  0  0  0  0  0  0  0  0  0  0  0
    5.1869    1.0236   16.9328 C   0  0  0  0  0  0  0  0  0  0  0  0
    4.7853    0.7171   18.3452 N   0  0  0  0  0  0  0  0  0  0  0  0
    5.7232   -0.0302   19.2463 C   0  0  0  0  0  0  0  0  0  0  0  0
    7.0627   -0.4710   18.7350 O   0  0  0  0  0  0  0  0  0  0  0  0
    3.9062    1.0065   18.6808 H   0  0  0  0  0  0  0  0  0  0  0  0
 31 32  1  0  0  0
 32 33  1  0  0  0
 33 34  2  0  0  0
 33 30  1  0  0  0
 30  1  1  0  0  0
  1  2  1  0  0  0
  2  3  2  0  0  0
  2  4  1  0  0  0
  4  5  2  0  0  0
  5  6  1  0  0  0
  6  7  2  0  0  0
  7  8  1  0  0  0
  7  9  1  0  0  0
 10  9  1  0  0  0
 10 11  1  0  0  0
 11 12  1  0  0  0
 12 13  1  0  0  0
 13 14  2  0  0  0
 13 15  1  0  0  0
 15 20  1  0  0  0
 20 21  2  0  0  0
 21 22  1  0  0  0
 22 23  2  0  0  0
 23 24  1  0  0  0
 24 25  2  0  0  0
 25 26  1  0  0  0
 26 27  2  0  0  0
 27 28  1  0  0  0
 28 29  2  0  0  0
 15 16  1  0  0  0
 16 17  1  0  0  0
 17 18  2  0  0  0
 18 19  1  0  0  0
 11  1  1  0  0  0
 17 12  1  0  0  0
 10  4  1  0  0  0
 29 20  1  0  0  0
 12 10  1  0  0  0
 29 24  1  0  0  0
 32 35  1  0  0  0
M  END
> <minimizedAffinity>
-8.58786

> <CNNscore>
0.4004515707

> <CNNaffinity>
6.6284852028

> <CNN_VS>
2.6543872356

> <CNNaffinity_variance>
0.0504611060

$$$$



 35 40  0  0  0  0  0  0  0  0999 V2000
   10.8194    0.8151   23.1847 N   0  0  0  0  0  0  0  0  0  0  0  0
   12.2230    0.3042   23.3230 C   0  0  0  0  0  0  0  0  0  0  0  0
   13.4346    0.8575   22.6333 O   0  0  0  0  0  0  0  0  0  0  0  0
   12.2022   -0.8571   24.2721 C   0  0  0  0  0  0  0  0  0  0  0  0
   13.2899   -1.7529   24.7861 C   0  0  0  0  0  0  0  0  0  0  0  0
   12.9613   -2.8557   25.7483 C   0  0  0  0  0  0  0  0  0  0  0  0
   11.5449   -3.0626   26.1966 C   0  0  0  0  0  0  0  0  0  0  0  0
   11.2163   -4.1653   27.1590 Cl  0  0  0  0  0  0  0  0  0  0  0  0
   10.4571   -2.1667   25.6827 C   0  0  0  0  0  0  0  0  0  0  0  0
   10.7858   -1.0640   24.7204 C   0  0  0  0  0  0  0  0  0  0  0  0
    9.9312   -0.0306   24.0484 C   0  0  0  0  0  0  0  0  0  0  0  0
    9.3092   -1.0265   24.9817 C   0  0  0  0  0  0  0  0  0  0  0  0
    7.9057   -0.5156   24.8434 C   0  0  0  0  0  0  0  0  0  0  0  0
    7.4673    0.6383   23.9911 O   0  0  0  0  0  0  0  0  0  0  0  0
    7.0173   -1.3613   25.7071 N   0  0  0  0  0  0  0  0  0  0  0  0
    7.8720   -2.3947   26.3792 C   0  0  0  0  0  0  0  0  0  0  0  0
    9.2884   -2.1878   25.9308 C   0  0  0  0  0  0  0  0  0  0  0  0
   10.4754   -2.9997   26.3569 C   0  0  0  0  0  0  0  0  0  0  0  0
   10.2998   -4.1380   27.3178 F   0  0  0  0  0  0  0  0  0  0  0  0
    5.5348   -1.2015   25.8701 C   0  0  0  0  0  0  0  0  0  0  0  0
    4.8262   -0.0584   25.2058 C   0  0  0  0  0  0  0  0  0  0  0  0
    3.3436    0.1014   25.3688 N   0  0  0  0  0  0  0  0  0  0  0  0
    2.5698   -0.8818   26.1960 C   0  0  0  0  0  0  0  0  0  0  0  0
    3.2784   -2.0249   26.8603 C   0  0  0  0  0  0  0  0  0  0  0  0
    2.5045   -3.0081   27.6875 C   0  0  0  0  0  0  0  0  0  0  0  0
    3.2132   -4.1513   28.3518 C   0  0  0  0  0  0  0  0  0  0  0  0
    4.6958   -4.3110   28.1888 C   0  0  0  0  0  0  0  0  0  0  0  0
    5.4696   -3.3278   27.3616 C   0  0  0  0  0  0  0  0  0  0  0  0
    4.7609   -2.1847   26.6973 C   0  0  0  0  0  0  0  0  0  0  0  0
   10.3811    1.9690   22.3324 C   0  0  0  0  0  0  0  0  0  0  0  0
   10.6539    5.8398   23.1644 C   0  0  0  0  0  0  0  0  0  0  0  0
   10.0710    4.4763   22.9382 N   0  0  0  0  0  0  0  0  0  0  0  0
   10.9640    3.3324   22.5586 C   0  0  0  0  0  0  0  0  0  0  0  0
   12.4399    3.5521   22.4052 O   0  0  0  0  0  0  0  0  0  0  0  0
    9.1023    4.3322   23.0388 H   0  0  0  0  0  0  0  0  0  0  0  0
 31 32  1  0  0  0
 32 33  1  0  0  0
 33 34  2  0  0  0
 33 30  1  0  0  0
 30  1  1  0  0  0
  1  2  1  0  0  0
  2  3  2  0  0  0
  2  4  1  0  0  0
  4  5  2  0  0  0
  5  6  1  0  0  0
  6  7  2  0  0  0
  7  8  1  0  0  0
  7  9  1  0  0  0
 10  9  1  0  0  0
 10 11  1  0  0  0
 11 12  1  0  0  0
 12 13  1  0  0  0
 13 14  2  0  0  0
 13 15  1  0  0  0
 15 20  1  0  0  0
 20 21  2  0  0  0
 21 22  1  0  0  0
 22 23  2  0  0  0
 23 24  1  0  0  0
 24 25  2  0  0  0
 25 26  1  0  0  0
 26 27  2  0  0  0
 27 28  1  0  0  0
 28 29  2  0  0  0
 15 16  1  0  0  0
 16 17  1  0  0  0
 17 18  2  0  0  0
 18 19  1  0  0  0
 11  1  1  0  0  0
 17 12  1  0  0  0
 10  4  1  0  0  0
 29 20  1  0  0  0
 12 10  1  0  0  0
 29 24  1  0  0  0
 32 35  1  0  0  0
M  END
> <minimizedAffinity>
-8.56008

> <CNNscore>
0.3846570551

> <CNNaffinity>
6.5665254593

> <CNN_VS>
2.5258603096

> <CNNaffinity_variance>
0.1440648139

$$$$



 35 40  0  0  0  0  0  0  0  0999 V2000
    4.2237   -3.6351   27.0926 N   0  0  0  0  0  0  0  0  0  0  0  0
    3.2047   -4.6564   26.6821 C   0  0  0  0  0  0  0  0  0  0  0  0
    1.9869   -5.0507   27.4642 O   0  0  0  0  0  0  0  0  0  0  0  0
    3.6172   -5.2143   25.3522 C   0  0  0  0  0  0  0  0  0  0  0  0
    2.9973   -6.2509   24.4628 C   0  0  0  0  0  0  0  0  0  0  0  0
    3.6514   -6.6110   23.1619 C   0  0  0  0  0  0  0  0  0  0  0  0
    4.9254   -5.9345   22.7504 C   0  0  0  0  0  0  0  0  0  0  0  0
    5.5795   -6.2946   21.4494 Cl  0  0  0  0  0  0  0  0  0  0  0  0
    5.5453   -4.8979   23.6399 C   0  0  0  0  0  0  0  0  0  0  0  0
    4.8912   -4.5378   24.9408 C   0  0  0  0  0  0  0  0  0  0  0  0
    5.2660   -3.5618   26.0164 C   0  0  0  0  0  0  0  0  0  0  0  0
    6.1332   -3.7084   24.8013 C   0  0  0  0  0  0  0  0  0  0  0  0
    7.1522   -2.6871   25.2118 C   0  0  0  0  0  0  0  0  0  0  0  0
    7.1324   -1.8807   26.4765 O   0  0  0  0  0  0  0  0  0  0  0  0
    8.1946   -2.6138   24.1356 N   0  0  0  0  0  0  0  0  0  0  0  0
    7.8196   -3.5898   23.0600 C   0  0  0  0  0  0  0  0  0  0  0  0
    6.5456   -4.2663   23.4714 C   0  0  0  0  0  0  0  0  0  0  0  0
    5.8129   -5.3163   22.6901 C   0  0  0  0  0  0  0  0  0  0  0  0
    6.3491   -5.7778   21.3675 F   0  0  0  0  0  0  0  0  0  0  0  0
    9.4001   -1.7212   24.1350 C   0  0  0  0  0  0  0  0  0  0  0  0
    9.3818   -0.4367   23.3605 C   0  0  0  0  0  0  0  0  0  0  0  0
   10.5873    0.4559   23.3600 N   0  0  0  0  0  0  0  0  0  0  0  0
   11.8110    0.0640   24.1339 C   0  0  0  0  0  0  0  0  0  0  0  0
   11.8293   -1.2204   24.9084 C   0  0  0  0  0  0  0  0  0  0  0  0
   13.0530   -1.6123   25.6823 C   0  0  0  0  0  0  0  0  0  0  0  0
   13.0712   -2.8968   26.4568 C   0  0  0  0  0  0  0  0  0  0  0  0
   11.8657   -3.7894   26.4574 C   0  0  0  0  0  0  0  0  0  0  0  0
   10.6420   -3.3975   25.6834 C   0  0  0  0  0  0  0  0  0  0  0  0
   10.6238   -2.1131   24.9090 C   0  0  0  0  0  0  0  0  0  0  0  0
    4.2039   -2.8287   28.3573 C   0  0  0  0  0  0  0  0  0  0  0  0
    5.5923    0.8642   28.7868 C   0  0  0  0  0  0  0  0  0  0  0  0
    5.5002   -0.6317   28.8496 N   0  0  0  0  0  0  0  0  0  0  0  0
    4.2960   -1.3329   28.2945 C   0  0  0  0  0  0  0  0  0  0  0  0
    3.1839   -0.5383   27.6766 O   0  0  0  0  0  0  0  0  0  0  0  0
    6.2302   -1.1532   29.2551 H   0  0  0  0  0  0  0  0  0  0  0  0
 31 32  1  0  0  0
 32 33  1  0  0  0
 33 34  2  0  0  0
 33 30  1  0  0  0
 30  1  1  0  0  0
  1  2  1  0  0  0
  2  3  2  0  0  0
  2  4  1  0  0  0
  4  5  2  0  0  0
  5  6  1  0  0  0
  6  7  2  0  0  0
  7  8  1  0  0  0
  7  9  1  0  0  0
 10  9  1  0  0  0
 10 11  1  0  0  0
 11 12  1  0  0  0
 12 13  1  0  0  0
 13 14  2  0  0  0
 13 15  1  0  0  0
 15 20  1  0  0  0
 20 21  2  0  0  0
 21 22  1  0  0  0
 22 23  2  0  0  0
 23 24  1  0  0  0
 24 25  2  0  0  0
 25 26  1  0  0  0
 26 27  2  0  0  0
 27 28  1  0  0  0
 28 29  2  0  0  0
 15 16  1  0  0  0
 16 17  1  0  0  0
 17 18  2  0  0  0
 18 19  1  0  0  0
 11  1  1  0  0  0
 17 12  1  0  0  0
 10  4  1  0  0  0
 29 20  1  0  0  0
 12 10  1  0  0  0
 29 24  1  0  0  0
 32 35  1  0  0  0
M  END
> <minimizedAffinity>
-7.91035

> <CNNscore>
0.3678314090

> <CNNaffinity>
6.4460573196

> <CNN_VS>
2.3710622787

> <CNNaffinity_variance>
0.0364591256

$$$$



 35 40  0  0  0  0  0  0  0  0999 V2000
   10.6665   -0.4256   24.2295 N   0  0  0  0  0  0  0  0  0  0  0  0
   10.8329   -1.2579   25.4662 C   0  0  0  0  0  0  0  0  0  0  0  0
   12.0359   -1.2753   26.3620 O   0  0  0  0  0  0  0  0  0  0  0  0
    9.5851   -2.0699   25.6500 C   0  0  0  0  0  0  0  0  0  0  0  0
    9.1815   -3.0674   26.6950 C   0  0  0  0  0  0  0  0  0  0  0  0
    7.8403   -3.7345   26.6167 C   0  0  0  0  0  0  0  0  0  0  0  0
    6.9027   -3.4040   25.4935 C   0  0  0  0  0  0  0  0  0  0  0  0
    5.5614   -4.0711   25.4153 Cl  0  0  0  0  0  0  0  0  0  0  0  0
    7.3063   -2.4064   24.4485 C   0  0  0  0  0  0  0  0  0  0  0  0
    8.6475   -1.7394   24.5268 C   0  0  0  0  0  0  0  0  0  0  0  0
    9.3158   -0.7232   23.6489 C   0  0  0  0  0  0  0  0  0  0  0  0
    7.9398   -1.2163   23.3121 C   0  0  0  0  0  0  0  0  0  0  0  0
    7.7734   -0.3840   22.0753 C   0  0  0  0  0  0  0  0  0  0  0  0
    8.7807    0.5771   21.5172 O   0  0  0  0  0  0  0  0  0  0  0  0
    6.4226   -0.6815   21.4947 N   0  0  0  0  0  0  0  0  0  0  0  0
    5.7543   -1.6977   22.3726 C   0  0  0  0  0  0  0  0  0  0  0  0
    6.6920   -2.0282   23.4959 C   0  0  0  0  0  0  0  0  0  0  0  0
    6.4281   -3.0000   24.6075 C   0  0  0  0  0  0  0  0  0  0  0  0
    5.1265   -3.7435   24.6606 F   0  0  0  0  0  0  0  0  0  0  0  0
    5.8421   -0.0702   20.2539 C   0  0  0  0  0  0  0  0  0  0  0  0
    6.4435   -0.3776   18.9145 C   0  0  0  0  0  0  0  0  0  0  0  0
    5.8630    0.2337   17.6738 N   0  0  0  0  0  0  0  0  0  0  0  0
    4.6813    1.1523   17.7725 C   0  0  0  0  0  0  0  0  0  0  0  0
    4.0799    1.4596   19.1118 C   0  0  0  0  0  0  0  0  0  0  0  0
    2.8982    2.3781   19.2106 C   0  0  0  0  0  0  0  0  0  0  0  0
    2.2969    2.6854   20.5501 C   0  0  0  0  0  0  0  0  0  0  0  0
    2.8774    2.0741   21.7908 C   0  0  0  0  0  0  0  0  0  0  0  0
    4.0591    1.1556   21.6921 C   0  0  0  0  0  0  0  0  0  0  0  0
    4.6604    0.8483   20.3526 C   0  0  0  0  0  0  0  0  0  0  0  0
   11.6738    0.5354   23.6713 C   0  0  0  0  0  0  0  0  0  0  0  0
   13.3478   -1.6602   20.8205 C   0  0  0  0  0  0  0  0  0  0  0  0
   12.3954   -1.2120   21.8892 N   0  0  0  0  0  0  0  0  0  0  0  0
   12.6261    0.0872   22.6026 C   0  0  0  0  0  0  0  0  0  0  0  0
   13.8093    0.9381   22.2473 O   0  0  0  0  0  0  0  0  0  0  0  0
   11.6189   -1.7705   22.1224 H   0  0  0  0  0  0  0  0  0  0  0  0
 31 32  1  0  0  0
 32 33  1  0  0  0
 33 34  2  0  0  0
 33 30  1  0  0  0
 30  1  1  0  0  0
  1  2  1  0  0  0
  2  3  2  0  0  0
  2  4  1  0  0  0
  4  5  2  0  0  0
  5  6  1  0  0  0
  6  7  2  0  0  0
  7  8  1  0  0  0
  7  9  1  0  0  0
 10  9  1  0  0  0
 10 11  1  0  0  0
 11 12  1  0  0  0
 12 13  1  0  0  0
 13 14  2  0  0  0
 13 15  1  0  0  0
 15 20  1  0  0  0
 20 21  2  0  0  0
 21 22  1  0  0  0
 22 23  2  0  0  0
 23 24  1  0  0  0
 24 25  2  0  0  0
 25 26  1  0  0  0
 26 27  2  0  0  0
 27 28  1  0  0  0
 28 29  2  0  0  0
 15 16  1  0  0  0
 16 17  1  0  0  0
 17 18  2  0  0  0
 18 19  1  0  0  0
 11  1  1  0  0  0
 17 12  1  0  0  0
 10  4  1  0  0  0
 29 20  1  0  0  0
 12 10  1  0  0  0
 29 24  1  0  0  0
 32 35  1  0  0  0
M  END
> <minimizedAffinity>
-8.61418

> <CNNscore>
0.3641093969

> <CNNaffinity>
6.6179184914

> <CNN_VS>
2.4096462727

> <CNNaffinity_variance>
0.0088991541

$$$$



 35 40  0  0  0  0  0  0  0  0999 V2000
   11.0197    1.3983   22.9231 N   0  0  0  0  0  0  0  0  0  0  0  0
   12.3306    0.6818   23.0578 C   0  0  0  0  0  0  0  0  0  0  0  0
   13.6172    1.0640   22.3879 O   0  0  0  0  0  0  0  0  0  0  0  0
   12.1292   -0.4839   23.9800 C   0  0  0  0  0  0  0  0  0  0  0  0
   13.0674   -1.5422   24.4797 C   0  0  0  0  0  0  0  0  0  0  0  0
   12.5701   -2.6046   25.4146 C   0  0  0  0  0  0  0  0  0  0  0  0
   11.1346   -2.6086   25.8499 C   0  0  0  0  0  0  0  0  0  0  0  0
   10.6374   -3.6710   26.7848 Cl  0  0  0  0  0  0  0  0  0  0  0  0
   10.1964   -1.5503   25.3502 C   0  0  0  0  0  0  0  0  0  0  0  0
   10.6937   -0.4879   24.4153 C   0  0  0  0  0  0  0  0  0  0  0  0
   10.0080    0.6753   23.7620 C   0  0  0  0  0  0  0  0  0  0  0  0
    9.2367   -0.2373   24.6688 C   0  0  0  0  0  0  0  0  0  0  0  0
    7.9258    0.4792   24.5341 C   0  0  0  0  0  0  0  0  0  0  0  0
    7.6712    1.7036   23.7058 O   0  0  0  0  0  0  0  0  0  0  0  0
    6.9140   -0.2438   25.3731 N   0  0  0  0  0  0  0  0  0  0  0  0
    7.5998   -1.4070   26.0263 C   0  0  0  0  0  0  0  0  0  0  0  0
    9.0353   -1.4030   25.5910 C   0  0  0  0  0  0  0  0  0  0  0  0
   10.0849   -2.3912   26.0053 C   0  0  0  0  0  0  0  0  0  0  0  0
    9.7336   -3.5113   26.9390 F   0  0  0  0  0  0  0  0  0  0  0  0
    5.4702    0.1307   25.5311 C   0  0  0  0  0  0  0  0  0  0  0  0
    4.5193   -0.0479   24.3847 C   0  0  0  0  0  0  0  0  0  0  0  0
    3.0754    0.3266   24.5427 N   0  0  0  0  0  0  0  0  0  0  0  0
    2.5824    0.8797   25.8470 C   0  0  0  0  0  0  0  0  0  0  0  0
    3.5333    1.0583   26.9932 C   0  0  0  0  0  0  0  0  0  0  0  0
    3.0403    1.6114   28.2975 C   0  0  0  0  0  0  0  0  0  0  0  0
    3.9912    1.7899   29.4438 C   0  0  0  0  0  0  0  0  0  0  0  0
    5.4351    1.4154   29.2858 C   0  0  0  0  0  0  0  0  0  0  0  0
    5.9281    0.8624   27.9815 C   0  0  0  0  0  0  0  0  0  0  0  0
    4.9772    0.6838   26.8353 C   0  0  0  0  0  0  0  0  0  0  0  0
   10.7651    2.6227   22.0948 C   0  0  0  0  0  0  0  0  0  0  0  0
   10.8146    6.3742   23.3883 C   0  0  0  0  0  0  0  0  0  0  0  0
   10.3059    5.0396   22.9300 N   0  0  0  0  0  0  0  0  0  0  0  0
   11.2737    3.9573   22.5531 C   0  0  0  0  0  0  0  0  0  0  0  0
   12.7501    4.2096   22.6345 O   0  0  0  0  0  0  0  0  0  0  0  0
    9.3369    4.8740   22.8765 H   0  0  0  0  0  0  0  0  0  0  0  0
 31 32  1  0  0  0
 32 33  1  0  0  0
 33 34  2  0  0  0
 33 30  1  0  0  0
 30  1  1  0  0  0
  1  2  1  0  0  0
  2  3  2  0  0  0
  2  4  1  0  0  0
  4  5  2  0  0  0
  5  6  1  0  0  0
  6  7  2  0  0  0
  7  8  1  0  0  0
  7  9  1  0  0  0
 10  9  1  0  0  0
 10 11  1  0  0  0
 11 12  1  0  0  0
 12 13  1  0  0  0
 13 14  2  0  0  0
 13 15  1  0  0  0
 15 20  1  0  0  0
 20 21  2  0  0  0
 21 22  1  0  0  0
 22 23  2  0  0  0
 23 24  1  0  0  0
 24 25  2  0  0  0
 25 26  1  0  0  0
 26 27  2  0  0  0
 27 28  1  0  0  0
 28 29  2  0  0  0
 15 16  1  0  0  0
 16 17  1  0  0  0
 17 18  2  0  0  0
 18 19  1  0  0  0
 11  1  1  0  0  0
 17 12  1  0  0  0
 10  4  1  0  0  0
 29 20  1  0  0  0
 12 10  1  0  0  0
 29 24  1  0  0  0
 32 35  1  0  0  0
M  END
> <minimizedAffinity>
-8.04814

> <CNNscore>
0.3481720686

> <CNNaffinity>
6.5551972389

> <CNN_VS>
2.2823364735

> <CNNaffinity_variance>
0.1144148484

$$$$



 35 40  0  0  0  0  0  0  0  0999 V2000
    9.0341    1.0278   23.6998 N   0  0  0  0  0  0  0  0  0  0  0  0
   10.4726    1.1971   23.3097 C   0  0  0  0  0  0  0  0  0  0  0  0
   11.0284    2.2867   22.4415 O   0  0  0  0  0  0  0  0  0  0  0  0
   11.2578    0.0854   23.9403 C   0  0  0  0  0  0  0  0  0  0  0  0
   12.7176   -0.2577   23.9052 C   0  0  0  0  0  0  0  0  0  0  0  0
   13.2242   -1.4572   24.6498 C   0  0  0  0  0  0  0  0  0  0  0  0
   12.2710   -2.3136   25.4297 C   0  0  0  0  0  0  0  0  0  0  0  0
   12.7776   -3.5131   26.1744 Cl  0  0  0  0  0  0  0  0  0  0  0  0
   10.8112   -1.9704   25.4648 C   0  0  0  0  0  0  0  0  0  0  0  0
   10.3046   -0.7709   24.7201 C   0  0  0  0  0  0  0  0  0  0  0  0
    8.9303   -0.1885   24.5715 C   0  0  0  0  0  0  0  0  0  0  0  0
    9.1362   -1.4234   25.3977 C   0  0  0  0  0  0  0  0  0  0  0  0
    7.6977   -1.5926   25.7878 C   0  0  0  0  0  0  0  0  0  0  0  0
    6.5624   -0.7020   25.3781 O   0  0  0  0  0  0  0  0  0  0  0  0
    7.5939   -2.8090   26.6595 N   0  0  0  0  0  0  0  0  0  0  0  0
    8.9682   -3.3914   26.8081 C   0  0  0  0  0  0  0  0  0  0  0  0
    9.9214   -2.5350   26.0283 C   0  0  0  0  0  0  0  0  0  0  0  0
   11.4001   -2.7523   25.9014 C   0  0  0  0  0  0  0  0  0  0  0  0
   12.0495   -3.9142   26.5928 F   0  0  0  0  0  0  0  0  0  0  0  0
    6.3365   -3.3482   27.2745 C   0  0  0  0  0  0  0  0  0  0  0  0
    6.0117   -3.0431   28.7069 C   0  0  0  0  0  0  0  0  0  0  0  0
    4.7543   -3.5823   29.3219 N   0  0  0  0  0  0  0  0  0  0  0  0
    3.8219   -4.4266   28.5048 C   0  0  0  0  0  0  0  0  0  0  0  0
    4.1468   -4.7317   27.0725 C   0  0  0  0  0  0  0  0  0  0  0  0
    3.2143   -5.5760   26.2554 C   0  0  0  0  0  0  0  0  0  0  0  0
    3.5393   -5.8810   24.8230 C   0  0  0  0  0  0  0  0  0  0  0  0
    4.7967   -5.3418   24.2080 C   0  0  0  0  0  0  0  0  0  0  0  0
    5.7291   -4.4975   25.0251 C   0  0  0  0  0  0  0  0  0  0  0  0
    5.4041   -4.1925   26.4574 C   0  0  0  0  0  0  0  0  0  0  0  0
    7.8988    1.9185   23.2902 C   0  0  0  0  0  0  0  0  0  0  0  0
    8.7427    5.7939   23.4299 C   0  0  0  0  0  0  0  0  0  0  0  0
    8.7568    4.3545   23.0078 N   0  0  0  0  0  0  0  0  0  0  0  0
    7.8848    3.3578   23.7122 C   0  0  0  0  0  0  0  0  0  0  0  0
    6.9987    3.8005   24.8387 O   0  0  0  0  0  0  0  0  0  0  0  0
    9.3383    4.0640   22.2684 H   0  0  0  0  0  0  0  0  0  0  0  0
 31 32  1  0  0  0
 32 33  1  0  0  0
 33 34  2  0  0  0
 33 30  1  0  0  0
 30  1  1  0  0  0
  1  2  1  0  0  0
  2  3  2  0  0  0
  2  4  1  0  0  0
  4  5  2  0  0  0
  5  6  1  0  0  0
  6  7  2  0  0  0
  7  8  1  0  0  0
  7  9  1  0  0  0
 10  9  1  0  0  0
 10 11  1  0  0  0
 11 12  1  0  0  0
 12 13  1  0  0  0
 13 14  2  0  0  0
 13 15  1  0  0  0
 15 20  1  0  0  0
 20 21  2  0  0  0
 21 22  1  0  0  0
 22 23  2  0  0  0
 23 24  1  0  0  0
 24 25  2  0  0  0
 25 26  1  0  0  0
 26 27  2  0  0  0
 27 28  1  0  0  0
 28 29  2  0  0  0
 15 16  1  0  0  0
 16 17  1  0  0  0
 17 18  2  0  0  0
 18 19  1  0  0  0
 11  1  1  0  0  0
 17 12  1  0  0  0
 10  4  1  0  0  0
 29 20  1  0  0  0
 12 10  1  0  0  0
 29 24  1  0  0  0
 32 35  1  0  0  0
M  END
> <minimizedAffinity>
-8.64657

> <CNNscore>
0.3474082351

> <CNNaffinity>
6.4735336304

> <CNN_VS>
2.2489588261

> <CNNaffinity_variance>
0.0548347235

$$$$



 35 40  0  0  0  0  0  0  0  0999 V2000
    8.4465   -3.6760   24.6583 N   0  0  0  0  0  0  0  0  0  0  0  0
    9.6945   -3.6599   25.4904 C   0  0  0  0  0  0  0  0  0  0  0  0
   10.0574   -4.6527   26.5547 O   0  0  0  0  0  0  0  0  0  0  0  0
   10.5158   -2.4768   25.0712 C   0  0  0  0  0  0  0  0  0  0  0  0
   11.8422   -1.9583   25.5421 C   0  0  0  0  0  0  0  0  0  0  0  0
   12.4282   -0.7247   24.9219 C   0  0  0  0  0  0  0  0  0  0  0  0
   11.6879   -0.0096   23.8309 C   0  0  0  0  0  0  0  0  0  0  0  0
   12.2739    1.2241   23.2107 Cl  0  0  0  0  0  0  0  0  0  0  0  0
   10.3615   -0.5281   23.3600 C   0  0  0  0  0  0  0  0  0  0  0  0
    9.7754   -1.7617   23.9802 C   0  0  0  0  0  0  0  0  0  0  0  0
    8.4965   -2.5029   23.7250 C   0  0  0  0  0  0  0  0  0  0  0  0
    8.8217   -1.2726   22.9309 C   0  0  0  0  0  0  0  0  0  0  0  0
    7.5737   -1.2887   22.0989 C   0  0  0  0  0  0  0  0  0  0  0  0
    6.4695   -2.3003   22.1851 O   0  0  0  0  0  0  0  0  0  0  0  0
    7.6237   -0.1154   21.1655 N   0  0  0  0  0  0  0  0  0  0  0  0
    8.9026    0.6257   21.4207 C   0  0  0  0  0  0  0  0  0  0  0  0
    9.6430   -0.0895   22.5118 C   0  0  0  0  0  0  0  0  0  0  0  0
   10.9714    0.3086   23.0833 C   0  0  0  0  0  0  0  0  0  0  0  0
   11.6790    1.5237   22.5608 F   0  0  0  0  0  0  0  0  0  0  0  0
    6.5784    0.2521   20.1544 C   0  0  0  0  0  0  0  0  0  0  0  0
    6.5486   -0.4367   18.8222 C   0  0  0  0  0  0  0  0  0  0  0  0
    5.5032   -0.0691   17.8111 N   0  0  0  0  0  0  0  0  0  0  0  0
    4.4878    0.9871   18.1323 C   0  0  0  0  0  0  0  0  0  0  0  0
    4.5176    1.6758   19.4645 C   0  0  0  0  0  0  0  0  0  0  0  0
    3.5021    2.7321   19.7856 C   0  0  0  0  0  0  0  0  0  0  0  0
    3.5319    3.4208   21.1179 C   0  0  0  0  0  0  0  0  0  0  0  0
    4.5773    3.0533   22.1290 C   0  0  0  0  0  0  0  0  0  0  0  0
    5.5927    1.9970   21.8078 C   0  0  0  0  0  0  0  0  0  0  0  0
    5.5629    1.3083   20.4756 C   0  0  0  0  0  0  0  0  0  0  0  0
    7.3423   -4.6877   24.7445 C   0  0  0  0  0  0  0  0  0  0  0  0
    5.9920   -6.3100   21.3838 C   0  0  0  0  0  0  0  0  0  0  0  0
    6.2012   -5.3311   22.5009 N   0  0  0  0  0  0  0  0  0  0  0  0
    7.1331   -5.6666   23.6275 C   0  0  0  0  0  0  0  0  0  0  0  0
    7.8558   -6.9810   23.6369 O   0  0  0  0  0  0  0  0  0  0  0  0
    5.7269   -4.4684   22.4947 H   0  0  0  0  0  0  0  0  0  0  0  0
 31 32  1  0  0  0
 32 33  1  0  0  0
 33 34  2  0  0  0
 33 30  1  0  0  0
 30  1  1  0  0  0
  1  2  1  0  0  0
  2  3  2  0  0  0
  2  4  1  0  0  0
  4  5  2  0  0  0
  5  6  1  0  0  0
  6  7  2  0  0  0
  7  8  1  0  0  0
  7  9  1  0  0  0
 10  9  1  0  0  0
 10 11  1  0  0  0
 11 12  1  0  0  0
 12 13  1  0  0  0
 13 14  2  0  0  0
 13 15  1  0  0  0
 15 20  1  0  0  0
 20 21  2  0  0  0
 21 22  1  0  0  0
 22 23  2  0  0  0
 23 24  1  0  0  0
 24 25  2  0  0  0
 25 26  1  0  0  0
 26 27  2  0  0  0
 27 28  1  0  0  0
 28 29  2  0  0  0
 15 16  1  0  0  0
 16 17  1  0  0  0
 17 18  2  0  0  0
 18 19  1  0  0  0
 11  1  1  0  0  0
 17 12  1  0  0  0
 10  4  1  0  0  0
 29 20  1  0  0  0
 12 10  1  0  0  0
 29 24  1  0  0  0
 32 35  1  0  0  0
M  END
> <minimizedAffinity>
-9.99769

> <CNNscore>
0.2970342040

> <CNNaffinity>
6.6364607811

> <CNN_VS>
1.9712558985

> <CNNaffinity_variance>
0.0786303431

$$$$
