
     RDKit          2D

 34 39  0  0  0  0  0  0  0  0999 V2000
   -2.5981   -8.1073    0.0000 C   0  0  0  0  0  0  0  0  0  0  0  0
   -1.2990   -7.3573    0.0000 N   0  0  0  0  0  0  0  0  0  0  0  0
   -1.2990   -5.8573    0.0000 C   0  0  0  0  0  0  0  0  0  0  0  0
   -2.5981   -5.1073    0.0000 O   0  0  0  0  0  0  0  0  0  0  0  0
   -0.0000   -5.1073    0.0000 C   0  0  0  0  0  0  0  0  0  0  0  0
   -0.0000   -3.6073    0.0000 N   0  0  0  0  0  0  0  0  0  0  0  0
    1.2135   -2.7256    0.0000 C   0  0  0  0  0  0  0  0  0  0  0  0
    2.6401   -3.1891    0.0000 O   0  0  0  0  0  0  0  0  0  0  0  0
    0.7500   -1.2990    0.0000 C   0  0  0  0  0  0  0  0  0  0  0  0
    1.5000    0.0000    0.0000 C   0  0  0  0  0  0  0  0  0  0  0  0
    0.7500    1.2990    0.0000 C   0  0  0  0  0  0  0  0  0  0  0  0
   -0.7500    1.2990    0.0000 C   0  0  0  0  0  0  0  0  0  0  0  0
   -1.5000    2.5981    0.0000 Cl  0  0  0  0  0  0  0  0  0  0  0  0
   -1.5000    0.0000    0.0000 C   0  0  0  0  0  0  0  0  0  0  0  0
   -0.7500   -1.2990    0.0000 C   0  0  0  0  0  0  0  0  0  0  0  0
   -1.2135   -2.7256    0.0000 C   0  0  0  0  0  0  0  0  0  0  0  0
   -2.2172   -1.6109    0.0000 C   0  0  0  0  0  0  0  0  0  0  0  0
   -3.4307   -2.4926    0.0000 C   0  0  0  0  0  0  0  0  0  0  0  0
   -3.4307   -3.9926    0.0000 O   0  0  0  0  0  0  0  0  0  0  0  0
   -4.6443   -1.6109    0.0000 N   0  0  0  0  0  0  0  0  0  0  0  0
   -6.0709   -2.0744    0.0000 C   0  0  0  0  0  0  0  0  0  0  0  0
   -6.3827   -3.5417    0.0000 C   0  0  0  0  0  0  0  0  0  0  0  0
   -7.8093   -4.0052    0.0000 N   0  0  0  0  0  0  0  0  0  0  0  0
   -8.9240   -3.0015    0.0000 C   0  0  0  0  0  0  0  0  0  0  0  0
   -8.6122   -1.5343    0.0000 C   0  0  0  0  0  0  0  0  0  0  0  0
   -9.7269   -0.5306    0.0000 C   0  0  0  0  0  0  0  0  0  0  0  0
   -9.4150    0.9367    0.0000 C   0  0  0  0  0  0  0  0  0  0  0  0
   -7.9884    1.4002    0.0000 C   0  0  0  0  0  0  0  0  0  0  0  0
   -6.8737    0.3965    0.0000 C   0  0  0  0  0  0  0  0  0  0  0  0
   -7.1856   -1.0707    0.0000 C   0  0  0  0  0  0  0  0  0  0  0  0
   -4.1807   -0.1843    0.0000 C   0  0  0  0  0  0  0  0  0  0  0  0
   -2.6807   -0.1843    0.0000 C   0  0  0  0  0  0  0  0  0  0  0  0
   -1.7991    1.0292    0.0000 C   0  0  0  0  0  0  0  0  0  0  0  0
   -2.4092    2.3995    0.0000 F   0  0  0  0  0  0  0  0  0  0  0  0
  1  2  1  0
  2  3  1  0
  3  4  2  0
  3  5  1  0
  5  6  1  0
  6  7  1  0
  7  8  2  0
  7  9  1  0
  9 10  2  0
 10 11  1  0
 11 12  2  0
 12 13  1  0
 12 14  1  0
 15 14  1  6
 15 16  1  0
 16 17  1  0
 17 18  1  6
 18 19  2  0
 18 20  1  0
 20 21  1  0
 21 22  2  0
 22 23  1  0
 23 24  2  0
 24 25  1  0
 25 26  2  0
 26 27  1  0
 27 28  2  0
 28 29  1  0
 29 30  2  0
 20 31  1  0
 31 32  1  0
 32 33  2  0
 33 34  1  0
 16  6  1  1
 32 17  1  0
 15  9  1  0
 30 21  1  0
 17 15  1  0
 30 25  1  0
M  END
$$$$
