


 42 48  0  0  0  0  0  0  0  0999 V2000
    4.9648   -2.7119   20.8357 O   0  0  0  0  0  0  0  0  0  0  0  0
    6.0691   -1.8599   21.3877 C   0  0  0  0  0  0  0  0  0  0  0  0
    6.9131   -2.3666   22.5195 C   0  0  0  0  0  0  0  0  0  0  0  0
    6.6528   -3.7253   23.0993 C   0  0  0  0  0  0  0  0  0  0  0  0
    7.4968   -4.2320   24.2310 C   0  0  0  0  0  0  0  0  0  0  0  0
    8.6011   -3.3800   24.7830 C   0  0  0  0  0  0  0  0  0  0  0  0
    9.2294   -4.1805   25.8851 Cl  0  0  0  0  0  0  0  0  0  0  0  0
    8.8614   -2.0213   24.2032 C   0  0  0  0  0  0  0  0  0  0  0  0
    8.0174   -1.5146   23.0715 C   0  0  0  0  0  0  0  0  0  0  0  0
    8.2777   -0.1559   22.4916 C   0  0  0  0  0  0  0  0  0  0  0  0
    7.4337    0.3508   21.3599 C   0  0  0  0  0  0  0  0  0  0  0  0
    6.3294   -0.5012   20.8079 N   0  0  0  0  0  0  0  0  0  0  0  0
    8.6541    1.2162   22.0167 C   0  0  0  0  0  0  0  0  0  0  0  0
    7.9924    1.9773   20.9063 O   0  0  0  0  0  0  0  0  0  0  0  0
    9.8085    1.6937   22.8470 N   0  0  0  0  0  0  0  0  0  0  0  0
   10.1455    0.6167   23.8351 C   0  0  0  0  0  0  0  0  0  0  0  0
    9.1994   -0.5264   23.6155 C   0  0  0  0  0  0  0  0  0  0  0  0
   10.5038    3.0161   22.7127 C   0  0  0  0  0  0  0  0  0  0  0  0
   11.9492    3.0665   22.3153 C   0  0  0  0  0  0  0  0  0  0  0  0
   12.6445    4.3888   22.1810 N   0  0  0  0  0  0  0  0  0  0  0  0
   11.8942    5.6607   22.4441 C   0  0  0  0  0  0  0  0  0  0  0  0
   10.4487    5.6103   22.8415 C   0  0  0  0  0  0  0  0  0  0  0  0
    9.6984    6.8823   23.1047 C   0  0  0  0  0  0  0  0  0  0  0  0
    8.2529    6.8318   23.5021 C   0  0  0  0  0  0  0  0  0  0  0  0
    7.5577    5.5095   23.6364 C   0  0  0  0  0  0  0  0  0  0  0  0
    8.3080    4.2376   23.3732 C   0  0  0  0  0  0  0  0  0  0  0  0
    9.7534    4.2880   22.9758 C   0  0  0  0  0  0  0  0  0  0  0  0
    5.4854    0.0056   19.6761 C   0  0  0  0  0  0  0  0  0  0  0  0
    4.3666    0.9673   19.9470 C   0  0  0  0  0  0  0  0  0  0  0  0
    3.7789    1.7697   18.8242 C   0  0  0  0  0  0  0  0  0  0  0  0
    2.6602    2.7314   19.0950 C   0  0  0  0  0  0  0  0  0  0  0  0
    2.1290    2.8907   20.4888 N   0  0  0  0  0  0  0  0  0  0  0  0
    2.7166    2.0883   21.6117 N   0  0  0  0  0  0  0  0  0  0  0  0
    3.8355    1.1266   21.3407 C   0  0  0  0  0  0  0  0  0  0  0  0
    9.1787   -1.8139   24.3848 C   0  0  0  0  0  0  0  0  0  0  0  0
    9.8475   -1.8980   25.7248 N   0  0  0  0  0  0  0  0  0  0  0  0
    9.3056   -1.8902   26.5467 H   0  0  0  0  0  0  0  0  0  0  0  0
   11.3418   -1.9939   25.8126 C   0  0  0  0  0  0  0  0  0  0  0  0
   12.3184   -0.9242   25.4224 N   0  0  0  0  0  0  0  0  0  0  0  0
   13.7021   -1.4455   25.6747 N   0  0  0  0  0  0  0  0  0  0  0  0
   13.5807   -2.8373   26.2208 C   0  0  0  0  0  0  0  0  0  0  0  0
   12.1220   -3.1762   26.3060 S   0  0  0  0  0  0  0  0  0  0  0  0
  1  2  2  0  0  0
  2  3  1  0  0  0
  3  4  2  0  0  0
  4  5  1  0  0  0
  5  6  2  0  0  0
  6  7  1  0  0  0
  6  8  1  0  0  0
  8  9  2  0  0  0
  9 10  1  0  0  0
 10 11  1  0  0  0
 11 12  1  0  0  0
 12 28  1  0  0  0
 28 29  1  0  0  0
 29 30  2  0  0  0
 30 31  1  0  0  0
 31 32  2  0  0  0
 32 33  1  0  0  0
 33 34  2  0  0  0
 10 13  1  0  0  0
 13 14  2  0  0  0
 13 15  1  0  0  0
 15 18  1  0  0  0
 18 19  2  0  0  0
 19 20  1  0  0  0
 20 21  2  0  0  0
 21 22  1  0  0  0
 22 23  2  0  0  0
 23 24  1  0  0  0
 24 25  2  0  0  0
 25 26  1  0  0  0
 26 27  2  0  0  0
 15 16  1  0  0  0
 16 17  1  0  0  0
 17 35  1  0  0  0
 35 36  1  0  0  0
 36 38  1  0  0  0
 38 39  2  0  0  0
 39 40  1  0  0  0
 40 41  2  0  0  0
 41 42  1  0  0  0
 12  2  1  0  0  0
 34 29  1  0  0  0
 27 18  1  0  0  0
 42 38  1  0  0  0
  9  3  1  0  0  0
 17 10  1  0  0  0
 27 22  1  0  0  0
 36 37  1  0  0  0
M  END
> <minimizedAffinity>
-9.82629

> <CNNscore>
0.7659336329

> <CNNaffinity>
7.5201392174

> <CNN_VS>
5.7599277496

> <CNNaffinity_variance>
0.1516150236

$$$$



 42 48  0  0  0  0  0  0  0  0999 V2000
    6.8983   -6.5243   24.8917 O   0  0  0  0  0  0  0  0  0  0  0  0
    6.9112   -5.2134   24.1628 C   0  0  0  0  0  0  0  0  0  0  0  0
    7.8804   -4.1413   24.5646 C   0  0  0  0  0  0  0  0  0  0  0  0
    8.8366   -4.3802   25.6952 C   0  0  0  0  0  0  0  0  0  0  0  0
    9.8058   -3.3082   26.0970 C   0  0  0  0  0  0  0  0  0  0  0  0
    9.8187   -1.9973   25.3680 C   0  0  0  0  0  0  0  0  0  0  0  0
   10.8910   -1.1735   26.0177 Cl  0  0  0  0  0  0  0  0  0  0  0  0
    8.8625   -1.7584   24.2374 C   0  0  0  0  0  0  0  0  0  0  0  0
    7.8933   -2.8304   23.8356 C   0  0  0  0  0  0  0  0  0  0  0  0
    6.9370   -2.5915   22.7049 C   0  0  0  0  0  0  0  0  0  0  0  0
    5.9678   -3.6636   22.3031 C   0  0  0  0  0  0  0  0  0  0  0  0
    5.9549   -4.9745   23.0321 N   0  0  0  0  0  0  0  0  0  0  0  0
    6.0452   -2.2101   21.5606 C   0  0  0  0  0  0  0  0  0  0  0  0
    4.9840   -3.0727   20.9444 O   0  0  0  0  0  0  0  0  0  0  0  0
    6.4010   -0.8147   21.1408 N   0  0  0  0  0  0  0  0  0  0  0  0
    7.5127   -0.3337   22.0255 C   0  0  0  0  0  0  0  0  0  0  0  0
    7.8439   -1.4318   22.9922 C   0  0  0  0  0  0  0  0  0  0  0  0
    5.7580   -0.0370   20.0310 C   0  0  0  0  0  0  0  0  0  0  0  0
    6.2916   -0.1438   18.6333 C   0  0  0  0  0  0  0  0  0  0  0  0
    5.6487    0.6340   17.5235 N   0  0  0  0  0  0  0  0  0  0  0  0
    4.4720    1.5186   17.8115 C   0  0  0  0  0  0  0  0  0  0  0  0
    3.9384    1.6254   19.2093 C   0  0  0  0  0  0  0  0  0  0  0  0
    2.7617    2.5101   19.4973 C   0  0  0  0  0  0  0  0  0  0  0  0
    2.2281    2.6169   20.8952 C   0  0  0  0  0  0  0  0  0  0  0  0
    2.8712    1.8391   22.0049 C   0  0  0  0  0  0  0  0  0  0  0  0
    4.0478    0.9545   21.7168 C   0  0  0  0  0  0  0  0  0  0  0  0
    4.5814    0.8476   20.3191 C   0  0  0  0  0  0  0  0  0  0  0  0
    4.9857   -6.0465   22.6303 C   0  0  0  0  0  0  0  0  0  0  0  0
    3.6947   -6.2085   23.3766 C   0  0  0  0  0  0  0  0  0  0  0  0
    2.5113   -6.8353   22.7009 C   0  0  0  0  0  0  0  0  0  0  0  0
    1.2203   -6.9972   23.4472 C   0  0  0  0  0  0  0  0  0  0  0  0
    1.1127   -6.5324   24.8693 N   0  0  0  0  0  0  0  0  0  0  0  0
    2.2961   -5.9056   25.5451 N   0  0  0  0  0  0  0  0  0  0  0  0
    3.5871   -5.7437   24.7987 C   0  0  0  0  0  0  0  0  0  0  0  0
    8.8972   -1.3794   24.0589 C   0  0  0  0  0  0  0  0  0  0  0  0
    9.8302   -0.2073   24.1349 N   0  0  0  0  0  0  0  0  0  0  0  0
    9.5972    0.5721   24.6894 H   0  0  0  0  0  0  0  0  0  0  0  0
   11.1180   -0.2227   23.3662 C   0  0  0  0  0  0  0  0  0  0  0  0
   12.2777    0.7068   23.5700 N   0  0  0  0  0  0  0  0  0  0  0  0
   13.3488    0.3337   22.5884 N   0  0  0  0  0  0  0  0  0  0  0  0
   12.8513   -0.8264   21.7780 C   0  0  0  0  0  0  0  0  0  0  0  0
   11.4726   -1.1702   22.2587 S   0  0  0  0  0  0  0  0  0  0  0  0
  1  2  2  0  0  0
  2  3  1  0  0  0
  3  4  2  0  0  0
  4  5  1  0  0  0
  5  6  2  0  0  0
  6  7  1  0  0  0
  6  8  1  0  0  0
  8  9  2  0  0  0
  9 10  1  0  0  0
 10 11  1  0  0  0
 11 12  1  0  0  0
 12 28  1  0  0  0
 28 29  1  0  0  0
 29 30  2  0  0  0
 30 31  1  0  0  0
 31 32  2  0  0  0
 32 33  1  0  0  0
 33 34  2  0  0  0
 10 13  1  0  0  0
 13 14  2  0  0  0
 13 15  1  0  0  0
 15 18  1  0  0  0
 18 19  2  0  0  0
 19 20  1  0  0  0
 20 21  2  0  0  0
 21 22  1  0  0  0
 22 23  2  0  0  0
 23 24  1  0  0  0
 24 25  2  0  0  0
 25 26  1  0  0  0
 26 27  2  0  0  0
 15 16  1  0  0  0
 16 17  1  0  0  0
 17 35  1  0  0  0
 35 36  1  0  0  0
 36 38  1  0  0  0
 38 39  2  0  0  0
 39 40  1  0  0  0
 40 41  2  0  0  0
 41 42  1  0  0  0
 12  2  1  0  0  0
 34 29  1  0  0  0
 27 18  1  0  0  0
 42 38  1  0  0  0
  9  3  1  0  0  0
 17 10  1  0  0  0
 27 22  1  0  0  0
 36 37  1  0  0  0
M  END
> <minimizedAffinity>
-9.03073

> <CNNscore>
0.7287589908

> <CNNaffinity>
7.5076241493

> <CNN_VS>
5.4712486267

> <CNNaffinity_variance>
0.0406427272

$$$$



 42 48  0  0  0  0  0  0  0  0999 V2000
   12.1540   -0.4439   25.2443 O   0  0  0  0  0  0  0  0  0  0  0  0
   10.8680   -0.5109   24.4750 C   0  0  0  0  0  0  0  0  0  0  0  0
    9.7618   -1.4110   24.9401 C   0  0  0  0  0  0  0  0  0  0  0  0
    9.9416   -2.2440   26.1745 C   0  0  0  0  0  0  0  0  0  0  0  0
    8.8354   -3.1439   26.6396 C   0  0  0  0  0  0  0  0  0  0  0  0
    7.5495   -3.2109   25.8703 C   0  0  0  0  0  0  0  0  0  0  0  0
    6.6809   -4.1913   26.6016 Cl  0  0  0  0  0  0  0  0  0  0  0  0
    7.3697   -2.3780   24.6359 C   0  0  0  0  0  0  0  0  0  0  0  0
    8.4759   -1.4780   24.1708 C   0  0  0  0  0  0  0  0  0  0  0  0
    8.2961   -0.6449   22.9364 C   0  0  0  0  0  0  0  0  0  0  0  0
    9.4023    0.2551   22.4713 C   0  0  0  0  0  0  0  0  0  0  0  0
   10.6883    0.3221   23.2406 N   0  0  0  0  0  0  0  0  0  0  0  0
    7.9730    0.1251   21.6904 C   0  0  0  0  0  0  0  0  0  0  0  0
    8.8790    1.0974   20.9949 O   0  0  0  0  0  0  0  0  0  0  0  0
    6.5847   -0.2477   21.2619 N   0  0  0  0  0  0  0  0  0  0  0  0
    6.0498   -1.2483   22.2431 C   0  0  0  0  0  0  0  0  0  0  0  0
    7.1075   -1.4938   23.2780 C   0  0  0  0  0  0  0  0  0  0  0  0
    5.8587    0.2862   20.0628 C   0  0  0  0  0  0  0  0  0  0  0  0
    6.3848    0.0138   18.6848 C   0  0  0  0  0  0  0  0  0  0  0  0
    5.6589    0.5477   17.4857 N   0  0  0  0  0  0  0  0  0  0  0  0
    4.4068    1.3540   17.6646 C   0  0  0  0  0  0  0  0  0  0  0  0
    3.8807    1.6265   19.0426 C   0  0  0  0  0  0  0  0  0  0  0  0
    2.6285    2.4329   19.2215 C   0  0  0  0  0  0  0  0  0  0  0  0
    2.1024    2.7053   20.5996 C   0  0  0  0  0  0  0  0  0  0  0  0
    2.8284    2.1713   21.7986 C   0  0  0  0  0  0  0  0  0  0  0  0
    4.0805    1.3650   21.6197 C   0  0  0  0  0  0  0  0  0  0  0  0
    4.6066    1.0925   20.2418 C   0  0  0  0  0  0  0  0  0  0  0  0
   11.7945    1.2221   22.7755 C   0  0  0  0  0  0  0  0  0  0  0  0
   11.5752    2.7042   22.7031 C   0  0  0  0  0  0  0  0  0  0  0  0
   10.2564    3.2883   23.1151 C   0  0  0  0  0  0  0  0  0  0  0  0
   10.0371    4.7703   23.0428 C   0  0  0  0  0  0  0  0  0  0  0  0
   11.1367    5.6685   22.5584 N   0  0  0  0  0  0  0  0  0  0  0  0
   12.4554    5.0844   22.1464 N   0  0  0  0  0  0  0  0  0  0  0  0
   12.6747    3.6022   22.2188 C   0  0  0  0  0  0  0  0  0  0  0  0
    6.9962   -2.4247   24.4489 C   0  0  0  0  0  0  0  0  0  0  0  0
    5.9835   -3.5311   24.4340 N   0  0  0  0  0  0  0  0  0  0  0  0
    5.3196   -3.6005   25.1576 H   0  0  0  0  0  0  0  0  0  0  0  0
    5.9822   -4.5317   23.3166 C   0  0  0  0  0  0  0  0  0  0  0  0
    5.0860   -4.5092   22.1139 N   0  0  0  0  0  0  0  0  0  0  0  0
    5.4268   -5.6942   21.2596 N   0  0  0  0  0  0  0  0  0  0  0  0
    6.5336   -6.4490   21.9343 C   0  0  0  0  0  0  0  0  0  0  0  0
    6.8768   -5.7306   23.2056 S   0  0  0  0  0  0  0  0  0  0  0  0
  1  2  2  0  0  0
  2  3  1  0  0  0
  3  4  2  0  0  0
  4  5  1  0  0  0
  5  6  2  0  0  0
  6  7  1  0  0  0
  6  8  1  0  0  0
  8  9  2  0  0  0
  9 10  1  0  0  0
 10 11  1  0  0  0
 11 12  1  0  0  0
 12 28  1  0  0  0
 28 29  1  0  0  0
 29 30  2  0  0  0
 30 31  1  0  0  0
 31 32  2  0  0  0
 32 33  1  0  0  0
 33 34  2  0  0  0
 10 13  1  0  0  0
 13 14  2  0  0  0
 13 15  1  0  0  0
 15 18  1  0  0  0
 18 19  2  0  0  0
 19 20  1  0  0  0
 20 21  2  0  0  0
 21 22  1  0  0  0
 22 23  2  0  0  0
 23 24  1  0  0  0
 24 25  2  0  0  0
 25 26  1  0  0  0
 26 27  2  0  0  0
 15 16  1  0  0  0
 16 17  1  0  0  0
 17 35  1  0  0  0
 35 36  1  0  0  0
 36 38  1  0  0  0
 38 39  2  0  0  0
 39 40  1  0  0  0
 40 41  2  0  0  0
 41 42  1  0  0  0
 12  2  1  0  0  0
 34 29  1  0  0  0
 27 18  1  0  0  0
 42 38  1  0  0  0
  9  3  1  0  0  0
 17 10  1  0  0  0
 27 22  1  0  0  0
 36 37  1  0  0  0
M  END
> <minimizedAffinity>
-9.23377

> <CNNscore>
0.6375594735

> <CNNaffinity>
7.3268938065

> <CNN_VS>
4.6713304520

> <CNNaffinity_variance>
0.3870363533

$$$$



 42 48  0  0  0  0  0  0  0  0999 V2000
    7.0482   -6.5309   24.8528 O   0  0  0  0  0  0  0  0  0  0  0  0
    7.0590   -5.2365   24.0949 C   0  0  0  0  0  0  0  0  0  0  0  0
    8.0909   -4.1934   24.4067 C   0  0  0  0  0  0  0  0  0  0  0  0
    9.1119   -4.4446   25.4765 C   0  0  0  0  0  0  0  0  0  0  0  0
   10.1436   -3.4015   25.7883 C   0  0  0  0  0  0  0  0  0  0  0  0
   10.1545   -2.1072   25.0303 C   0  0  0  0  0  0  0  0  0  0  0  0
   11.2968   -1.3109   25.5883 Cl  0  0  0  0  0  0  0  0  0  0  0  0
    9.1335   -1.8559   23.9606 C   0  0  0  0  0  0  0  0  0  0  0  0
    8.1017   -2.8990   23.6488 C   0  0  0  0  0  0  0  0  0  0  0  0
    7.0807   -2.6478   22.5789 C   0  0  0  0  0  0  0  0  0  0  0  0
    6.0489   -3.6909   22.2671 C   0  0  0  0  0  0  0  0  0  0  0  0
    6.0381   -4.9853   23.0251 N   0  0  0  0  0  0  0  0  0  0  0  0
    6.1282   -2.2569   21.4881 C   0  0  0  0  0  0  0  0  0  0  0  0
    4.9977   -3.0917   20.9637 O   0  0  0  0  0  0  0  0  0  0  0  0
    6.5047   -0.8846   21.0137 N   0  0  0  0  0  0  0  0  0  0  0  0
    7.6899   -0.4274   21.8114 C   0  0  0  0  0  0  0  0  0  0  0  0
    8.0458   -1.5171   22.7787 C   0  0  0  0  0  0  0  0  0  0  0  0
    5.8168   -0.1062   19.9316 C   0  0  0  0  0  0  0  0  0  0  0  0
    6.2681   -0.2417   18.5076 C   0  0  0  0  0  0  0  0  0  0  0  0
    5.5802    0.5367   17.4256 N   0  0  0  0  0  0  0  0  0  0  0  0
    4.4410    1.4506   17.7676 C   0  0  0  0  0  0  0  0  0  0  0  0
    3.9897    1.5861   19.1917 C   0  0  0  0  0  0  0  0  0  0  0  0
    2.8505    2.5001   19.5337 C   0  0  0  0  0  0  0  0  0  0  0  0
    2.3993    2.6356   20.9578 C   0  0  0  0  0  0  0  0  0  0  0  0
    3.0872    1.8572   22.0398 C   0  0  0  0  0  0  0  0  0  0  0  0
    4.2264    0.9432   21.6977 C   0  0  0  0  0  0  0  0  0  0  0  0
    4.6776    0.8077   20.2738 C   0  0  0  0  0  0  0  0  0  0  0  0
    5.0062   -6.0285   22.7133 C   0  0  0  0  0  0  0  0  0  0  0  0
    3.7682   -6.1335   23.5536 C   0  0  0  0  0  0  0  0  0  0  0  0
    2.5496   -6.8198   23.0112 C   0  0  0  0  0  0  0  0  0  0  0  0
    1.3116   -6.9248   23.8516 C   0  0  0  0  0  0  0  0  0  0  0  0
    1.2921   -6.3437   25.2344 N   0  0  0  0  0  0  0  0  0  0  0  0
    2.5107   -5.6575   25.7767 N   0  0  0  0  0  0  0  0  0  0  0  0
    3.7488   -5.5524   24.9363 C   0  0  0  0  0  0  0  0  0  0  0  0
    9.1697   -1.4823   23.7716 C   0  0  0  0  0  0  0  0  0  0  0  0
    9.3667   -0.2748   24.6395 N   0  0  0  0  0  0  0  0  0  0  0  0
   10.2383   -0.1136   25.0680 H   0  0  0  0  0  0  0  0  0  0  0  0
    8.2360    0.6870   24.8544 C   0  0  0  0  0  0  0  0  0  0  0  0
    8.0347    1.9867   24.1329 N   0  0  0  0  0  0  0  0  0  0  0  0
    6.7823    2.6210   24.6612 N   0  0  0  0  0  0  0  0  0  0  0  0
    6.2095    1.7134   25.7091 C   0  0  0  0  0  0  0  0  0  0  0  0
    7.1079    0.5182   25.8285 S   0  0  0  0  0  0  0  0  0  0  0  0
  1  2  2  0  0  0
  2  3  1  0  0  0
  3  4  2  0  0  0
  4  5  1  0  0  0
  5  6  2  0  0  0
  6  7  1  0  0  0
  6  8  1  0  0  0
  8  9  2  0  0  0
  9 10  1  0  0  0
 10 11  1  0  0  0
 11 12  1  0  0  0
 12 28  1  0  0  0
 28 29  1  0  0  0
 29 30  2  0  0  0
 30 31  1  0  0  0
 31 32  2  0  0  0
 32 33  1  0  0  0
 33 34  2  0  0  0
 10 13  1  0  0  0
 13 14  2  0  0  0
 13 15  1  0  0  0
 15 18  1  0  0  0
 18 19  2  0  0  0
 19 20  1  0  0  0
 20 21  2  0  0  0
 21 22  1  0  0  0
 22 23  2  0  0  0
 23 24  1  0  0  0
 24 25  2  0  0  0
 25 26  1  0  0  0
 26 27  2  0  0  0
 15 16  1  0  0  0
 16 17  1  0  0  0
 17 35  1  0  0  0
 35 36  1  0  0  0
 36 38  1  0  0  0
 38 39  2  0  0  0
 39 40  1  0  0  0
 40 41  2  0  0  0
 41 42  1  0  0  0
 12  2  1  0  0  0
 34 29  1  0  0  0
 27 18  1  0  0  0
 42 38  1  0  0  0
  9  3  1  0  0  0
 17 10  1  0  0  0
 27 22  1  0  0  0
 36 37  1  0  0  0
M  END
> <minimizedAffinity>
-8.01683

> <CNNscore>
0.5365008712

> <CNNaffinity>
6.9946527481

> <CNN_VS>
3.7526373863

> <CNNaffinity_variance>
0.1632081270

$$$$



 42 48  0  0  0  0  0  0  0  0999 V2000
    8.1253   -3.4775   27.4992 O   0  0  0  0  0  0  0  0  0  0  0  0
    8.1167   -2.8455   26.1388 C   0  0  0  0  0  0  0  0  0  0  0  0
    9.4113   -2.5062   25.4614 C   0  0  0  0  0  0  0  0  0  0  0  0
   10.7144   -2.7987   26.1443 C   0  0  0  0  0  0  0  0  0  0  0  0
   12.0089   -2.4593   25.4668 C   0  0  0  0  0  0  0  0  0  0  0  0
   12.0003   -1.8274   24.1064 C   0  0  0  0  0  0  0  0  0  0  0  0
   13.4397   -1.6272   23.7345 Cl  0  0  0  0  0  0  0  0  0  0  0  0
   10.6973   -1.5348   23.4235 C   0  0  0  0  0  0  0  0  0  0  0  0
    9.4028   -1.8742   24.1010 C   0  0  0  0  0  0  0  0  0  0  0  0
    8.0996   -1.5817   23.4181 C   0  0  0  0  0  0  0  0  0  0  0  0
    6.8051   -1.9210   24.0956 C   0  0  0  0  0  0  0  0  0  0  0  0
    6.8136   -2.5530   25.4559 N   0  0  0  0  0  0  0  0  0  0  0  0
    6.8813   -1.2321   22.6160 C   0  0  0  0  0  0  0  0  0  0  0  0
    5.4575   -1.4531   23.0333 O   0  0  0  0  0  0  0  0  0  0  0  0
    7.3366   -0.6227   21.3231 N   0  0  0  0  0  0  0  0  0  0  0  0
    8.8363   -0.5957   21.3263 C   0  0  0  0  0  0  0  0  0  0  0  0
    9.3079   -1.1883   22.6210 C   0  0  0  0  0  0  0  0  0  0  0  0
    6.4481   -0.1274   20.2208 C   0  0  0  0  0  0  0  0  0  0  0  0
    6.4699   -0.8001   18.8804 C   0  0  0  0  0  0  0  0  0  0  0  0
    5.5815   -0.3048   17.7780 N   0  0  0  0  0  0  0  0  0  0  0  0
    4.6711    0.8634   18.0161 C   0  0  0  0  0  0  0  0  0  0  0  0
    4.6493    1.5362   19.3566 C   0  0  0  0  0  0  0  0  0  0  0  0
    3.7389    2.7044   19.5947 C   0  0  0  0  0  0  0  0  0  0  0  0
    3.7171    3.3771   20.9352 C   0  0  0  0  0  0  0  0  0  0  0  0
    4.6056    2.8817   22.0375 C   0  0  0  0  0  0  0  0  0  0  0  0
    5.5159    1.7136   21.7994 C   0  0  0  0  0  0  0  0  0  0  0  0
    5.5378    1.0408   20.4590 C   0  0  0  0  0  0  0  0  0  0  0  0
    5.5190   -2.8924   26.1334 C   0  0  0  0  0  0  0  0  0  0  0  0
    5.0639   -4.3196   26.2094 C   0  0  0  0  0  0  0  0  0  0  0  0
    4.3329   -4.8101   27.4239 C   0  0  0  0  0  0  0  0  0  0  0  0
    3.8778   -6.2373   27.4998 C   0  0  0  0  0  0  0  0  0  0  0  0
    4.1537   -7.1742   26.3613 N   0  0  0  0  0  0  0  0  0  0  0  0
    4.8847   -6.6837   25.1467 N   0  0  0  0  0  0  0  0  0  0  0  0
    5.3398   -5.2563   25.0708 C   0  0  0  0  0  0  0  0  0  0  0  0
   10.7369   -1.3579   23.0443 C   0  0  0  0  0  0  0  0  0  0  0  0
   11.4525   -0.2357   23.7361 N   0  0  0  0  0  0  0  0  0  0  0  0
   12.0322   -0.4240   24.5092 H   0  0  0  0  0  0  0  0  0  0  0  0
   11.2850    1.1733   23.2500 C   0  0  0  0  0  0  0  0  0  0  0  0
   12.3528    2.0249   22.6296 N   0  0  0  0  0  0  0  0  0  0  0  0
   11.7479    3.3562   22.2952 N   0  0  0  0  0  0  0  0  0  0  0  0
   10.3064    3.3275   22.7088 C   0  0  0  0  0  0  0  0  0  0  0  0
   10.0203    1.9785   23.2990 S   0  0  0  0  0  0  0  0  0  0  0  0
  1  2  2  0  0  0
  2  3  1  0  0  0
  3  4  2  0  0  0
  4  5  1  0  0  0
  5  6  2  0  0  0
  6  7  1  0  0  0
  6  8  1  0  0  0
  8  9  2  0  0  0
  9 10  1  0  0  0
 10 11  1  0  0  0
 11 12  1  0  0  0
 12 28  1  0  0  0
 28 29  1  0  0  0
 29 30  2  0  0  0
 30 31  1  0  0  0
 31 32  2  0  0  0
 32 33  1  0  0  0
 33 34  2  0  0  0
 10 13  1  0  0  0
 13 14  2  0  0  0
 13 15  1  0  0  0
 15 18  1  0  0  0
 18 19  2  0  0  0
 19 20  1  0  0  0
 20 21  2  0  0  0
 21 22  1  0  0  0
 22 23  2  0  0  0
 23 24  1  0  0  0
 24 25  2  0  0  0
 25 26  1  0  0  0
 26 27  2  0  0  0
 15 16  1  0  0  0
 16 17  1  0  0  0
 17 35  1  0  0  0
 35 36  1  0  0  0
 36 38  1  0  0  0
 38 39  2  0  0  0
 39 40  1  0  0  0
 40 41  2  0  0  0
 41 42  1  0  0  0
 12  2  1  0  0  0
 34 29  1  0  0  0
 27 18  1  0  0  0
 42 38  1  0  0  0
  9  3  1  0  0  0
 17 10  1  0  0  0
 27 22  1  0  0  0
 36 37  1  0  0  0
M  END
> <minimizedAffinity>
-9.21648

> <CNNscore>
0.3478586078

> <CNNaffinity>
7.0273590088

> <CNN_VS>
2.4445273876

> <CNNaffinity_variance>
0.3307117224

$$$$



 42 48  0  0  0  0  0  0  0  0999 V2000
    3.4813    2.1915   22.2174 O   0  0  0  0  0  0  0  0  0  0  0  0
    4.3018    1.2666   23.0667 C   0  0  0  0  0  0  0  0  0  0  0  0
    3.7041    0.6490   24.2962 C   0  0  0  0  0  0  0  0  0  0  0  0
    2.2861    0.9563   24.6763 C   0  0  0  0  0  0  0  0  0  0  0  0
    1.6885    0.3388   25.9057 C   0  0  0  0  0  0  0  0  0  0  0  0
    2.5090   -0.5861   26.7550 C   0  0  0  0  0  0  0  0  0  0  0  0
    1.6163   -1.0132   27.8824 Cl  0  0  0  0  0  0  0  0  0  0  0  0
    3.9271   -0.8935   26.3749 C   0  0  0  0  0  0  0  0  0  0  0  0
    4.5246   -0.2759   25.1455 C   0  0  0  0  0  0  0  0  0  0  0  0
    5.9428   -0.5833   24.7653 C   0  0  0  0  0  0  0  0  0  0  0  0
    6.5404    0.0343   23.5359 C   0  0  0  0  0  0  0  0  0  0  0  0
    5.7199    0.9592   22.6866 N   0  0  0  0  0  0  0  0  0  0  0  0
    7.3666   -0.9820   24.5127 C   0  0  0  0  0  0  0  0  0  0  0  0
    8.2199   -0.5259   23.3665 O   0  0  0  0  0  0  0  0  0  0  0  0
    7.7873   -1.9170   25.6076 N   0  0  0  0  0  0  0  0  0  0  0  0
    6.6236   -2.0961   26.5369 C   0  0  0  0  0  0  0  0  0  0  0  0
    5.4836   -1.2718   26.0163 C   0  0  0  0  0  0  0  0  0  0  0  0
    9.1352   -2.5600   25.7485 C   0  0  0  0  0  0  0  0  0  0  0  0
    9.2601   -3.9047   26.4011 C   0  0  0  0  0  0  0  0  0  0  0  0
   10.6080   -4.5477   26.5419 N   0  0  0  0  0  0  0  0  0  0  0  0
   11.8309   -3.8459   26.0301 C   0  0  0  0  0  0  0  0  0  0  0  0
   11.7059   -2.5011   25.3775 C   0  0  0  0  0  0  0  0  0  0  0  0
   12.9289   -1.7992   24.8657 C   0  0  0  0  0  0  0  0  0  0  0  0
   12.8038   -0.4544   24.2131 C   0  0  0  0  0  0  0  0  0  0  0  0
   11.4560    0.1885   24.0723 C   0  0  0  0  0  0  0  0  0  0  0  0
   10.2331   -0.5134   24.5841 C   0  0  0  0  0  0  0  0  0  0  0  0
   10.3581   -1.8581   25.2367 C   0  0  0  0  0  0  0  0  0  0  0  0
    6.3175    1.5768   21.4572 C   0  0  0  0  0  0  0  0  0  0  0  0
    6.0153    1.0005   20.1057 C   0  0  0  0  0  0  0  0  0  0  0  0
    4.8685    1.5368   19.3011 C   0  0  0  0  0  0  0  0  0  0  0  0
    4.5663    0.9605   17.9496 C   0  0  0  0  0  0  0  0  0  0  0  0
    5.4108   -0.1521   17.4027 N   0  0  0  0  0  0  0  0  0  0  0  0
    6.5575   -0.6884   18.2073 N   0  0  0  0  0  0  0  0  0  0  0  0
    6.8597   -0.1120   19.5589 C   0  0  0  0  0  0  0  0  0  0  0  0
    4.1232   -1.1564   26.6377 C   0  0  0  0  0  0  0  0  0  0  0  0
    3.9087   -1.5861   28.0587 N   0  0  0  0  0  0  0  0  0  0  0  0
    3.2165   -2.2528   28.2721 H   0  0  0  0  0  0  0  0  0  0  0  0
    4.7487   -1.0002   29.1545 C   0  0  0  0  0  0  0  0  0  0  0  0
    5.3487   -1.7538   30.3045 N   0  0  0  0  0  0  0  0  0  0  0  0
    6.1071   -0.7771   31.1535 N   0  0  0  0  0  0  0  0  0  0  0  0
    5.9760    0.5801   30.5283 C   0  0  0  0  0  0  0  0  0  0  0  0
    5.1365    0.4422   29.2929 S   0  0  0  0  0  0  0  0  0  0  0  0
  1  2  2  0  0  0
  2  3  1  0  0  0
  3  4  2  0  0  0
  4  5  1  0  0  0
  5  6  2  0  0  0
  6  7  1  0  0  0
  6  8  1  0  0  0
  8  9  2  0  0  0
  9 10  1  0  0  0
 10 11  1  0  0  0
 11 12  1  0  0  0
 12 28  1  0  0  0
 28 29  1  0  0  0
 29 30  2  0  0  0
 30 31  1  0  0  0
 31 32  2  0  0  0
 32 33  1  0  0  0
 33 34  2  0  0  0
 10 13  1  0  0  0
 13 14  2  0  0  0
 13 15  1  0  0  0
 15 18  1  0  0  0
 18 19  2  0  0  0
 19 20  1  0  0  0
 20 21  2  0  0  0
 21 22  1  0  0  0
 22 23  2  0  0  0
 23 24  1  0  0  0
 24 25  2  0  0  0
 25 26  1  0  0  0
 26 27  2  0  0  0
 15 16  1  0  0  0
 16 17  1  0  0  0
 17 35  1  0  0  0
 35 36  1  0  0  0
 36 38  1  0  0  0
 38 39  2  0  0  0
 39 40  1  0  0  0
 40 41  2  0  0  0
 41 42  1  0  0  0
 12  2  1  0  0  0
 34 29  1  0  0  0
 27 18  1  0  0  0
 42 38  1  0  0  0
  9  3  1  0  0  0
 17 10  1  0  0  0
 27 22  1  0  0  0
 36 37  1  0  0  0
M  END
> <minimizedAffinity>
-7.66707

> <CNNscore>
0.3318400681

> <CNNaffinity>
6.9361524582

> <CNN_VS>
2.3016932011

> <CNNaffinity_variance>
0.1221261472

$$$$



 42 48  0  0  0  0  0  0  0  0999 V2000
    2.2510    1.9937   22.5377 O   0  0  0  0  0  0  0  0  0  0  0  0
    3.4696    1.4035   23.1832 C   0  0  0  0  0  0  0  0  0  0  0  0
    3.3442    0.6510   24.4748 C   0  0  0  0  0  0  0  0  0  0  0  0
    2.0002    0.4888   25.1208 C   0  0  0  0  0  0  0  0  0  0  0  0
    1.8749   -0.2636   26.4123 C   0  0  0  0  0  0  0  0  0  0  0  0
    3.0935   -0.8538   27.0578 C   0  0  0  0  0  0  0  0  0  0  0  0
    2.6137   -1.5241   28.3112 Cl  0  0  0  0  0  0  0  0  0  0  0  0
    4.4374   -0.6916   26.4118 C   0  0  0  0  0  0  0  0  0  0  0  0
    4.5628    0.0608   25.1203 C   0  0  0  0  0  0  0  0  0  0  0  0
    5.9068    0.2231   24.4742 C   0  0  0  0  0  0  0  0  0  0  0  0
    6.0322    0.9755   23.1827 C   0  0  0  0  0  0  0  0  0  0  0  0
    4.8136    1.5657   22.5372 N   0  0  0  0  0  0  0  0  0  0  0  0
    7.3094    0.3034   23.9486 C   0  0  0  0  0  0  0  0  0  0  0  0
    7.7397    0.9880   22.6852 O   0  0  0  0  0  0  0  0  0  0  0  0
    8.2062   -0.4211   24.9082 N   0  0  0  0  0  0  0  0  0  0  0  0
    7.3579   -0.9492   26.0269 C   0  0  0  0  0  0  0  0  0  0  0  0
    5.9368   -0.5511   25.7587 C   0  0  0  0  0  0  0  0  0  0  0  0
    9.6907   -0.5882   24.7729 C   0  0  0  0  0  0  0  0  0  0  0  0
   10.4890    0.4086   23.9861 C   0  0  0  0  0  0  0  0  0  0  0  0
   11.9735    0.2415   23.8508 N   0  0  0  0  0  0  0  0  0  0  0  0
   12.6597   -0.9224   24.5023 C   0  0  0  0  0  0  0  0  0  0  0  0
   11.8614   -1.9192   25.2891 C   0  0  0  0  0  0  0  0  0  0  0  0
   12.5476   -3.0832   25.9406 C   0  0  0  0  0  0  0  0  0  0  0  0
   11.7493   -4.0800   26.7274 C   0  0  0  0  0  0  0  0  0  0  0  0
   10.2648   -3.9128   26.8627 C   0  0  0  0  0  0  0  0  0  0  0  0
    9.5786   -2.7489   26.2112 C   0  0  0  0  0  0  0  0  0  0  0  0
   10.3769   -1.7522   25.4244 C   0  0  0  0  0  0  0  0  0  0  0  0
    4.9390    2.3181   21.2455 C   0  0  0  0  0  0  0  0  0  0  0  0
    5.1397    1.5725   19.9596 C   0  0  0  0  0  0  0  0  0  0  0  0
    4.2047    1.7972   18.8085 C   0  0  0  0  0  0  0  0  0  0  0  0
    4.4054    1.0516   17.5226 C   0  0  0  0  0  0  0  0  0  0  0  0
    5.5412    0.0811   17.3877 N   0  0  0  0  0  0  0  0  0  0  0  0
    6.4763   -0.1437   18.5388 N   0  0  0  0  0  0  0  0  0  0  0  0
    6.2756    0.6021   19.8248 C   0  0  0  0  0  0  0  0  0  0  0  0
    4.7534   -0.8709   26.6231 C   0  0  0  0  0  0  0  0  0  0  0  0
    4.8249   -0.6486   28.1048 N   0  0  0  0  0  0  0  0  0  0  0  0
    4.5649   -1.3688   28.7237 H   0  0  0  0  0  0  0  0  0  0  0  0
    5.2924    0.6708   28.6436 C   0  0  0  0  0  0  0  0  0  0  0  0
    6.5140    1.4208   28.2017 N   0  0  0  0  0  0  0  0  0  0  0  0
    6.5969    2.6855   29.0039 N   0  0  0  0  0  0  0  0  0  0  0  0
    5.4266    2.7173   29.9417 C   0  0  0  0  0  0  0  0  0  0  0  0
    4.6204    1.4721   29.7190 S   0  0  0  0  0  0  0  0  0  0  0  0
  1  2  2  0  0  0
  2  3  1  0  0  0
  3  4  2  0  0  0
  4  5  1  0  0  0
  5  6  2  0  0  0
  6  7  1  0  0  0
  6  8  1  0  0  0
  8  9  2  0  0  0
  9 10  1  0  0  0
 10 11  1  0  0  0
 11 12  1  0  0  0
 12 28  1  0  0  0
 28 29  1  0  0  0
 29 30  2  0  0  0
 30 31  1  0  0  0
 31 32  2  0  0  0
 32 33  1  0  0  0
 33 34  2  0  0  0
 10 13  1  0  0  0
 13 14  2  0  0  0
 13 15  1  0  0  0
 15 18  1  0  0  0
 18 19  2  0  0  0
 19 20  1  0  0  0
 20 21  2  0  0  0
 21 22  1  0  0  0
 22 23  2  0  0  0
 23 24  1  0  0  0
 24 25  2  0  0  0
 25 26  1  0  0  0
 26 27  2  0  0  0
 15 16  1  0  0  0
 16 17  1  0  0  0
 17 35  1  0  0  0
 35 36  1  0  0  0
 36 38  1  0  0  0
 38 39  2  0  0  0
 39 40  1  0  0  0
 40 41  2  0  0  0
 41 42  1  0  0  0
 12  2  1  0  0  0
 34 29  1  0  0  0
 27 18  1  0  0  0
 42 38  1  0  0  0
  9  3  1  0  0  0
 17 10  1  0  0  0
 27 22  1  0  0  0
 36 37  1  0  0  0
M  END
> <minimizedAffinity>
-7.47773

> <CNNscore>
0.2859933674

> <CNNaffinity>
6.6389908791

> <CNN_VS>
1.8987073898

> <CNNaffinity_variance>
0.1669650972

$$$$



 42 48  0  0  0  0  0  0  0  0999 V2000
    5.9606    4.4234   21.4788 O   0  0  0  0  0  0  0  0  0  0  0  0
    6.7379    3.1729   21.7652 C   0  0  0  0  0  0  0  0  0  0  0  0
    6.3608    1.8852   21.0945 C   0  0  0  0  0  0  0  0  0  0  0  0
    5.2064    1.8481   20.1374 C   0  0  0  0  0  0  0  0  0  0  0  0
    4.8293    0.5604   19.4668 C   0  0  0  0  0  0  0  0  0  0  0  0
    5.6066   -0.6901   19.7532 C   0  0  0  0  0  0  0  0  0  0  0  0
    4.9709   -1.7700   18.9287 Cl  0  0  0  0  0  0  0  0  0  0  0  0
    6.7610   -0.6529   20.7102 C   0  0  0  0  0  0  0  0  0  0  0  0
    7.1381    0.6347   21.3809 C   0  0  0  0  0  0  0  0  0  0  0  0
    8.2925    0.6719   22.3380 C   0  0  0  0  0  0  0  0  0  0  0  0
    8.6696    1.9595   23.0086 C   0  0  0  0  0  0  0  0  0  0  0  0
    7.8923    3.2100   22.7222 N   0  0  0  0  0  0  0  0  0  0  0  0
    9.4648    0.5556   23.2666 C   0  0  0  0  0  0  0  0  0  0  0  0
   10.0655    1.6694   24.0719 O   0  0  0  0  0  0  0  0  0  0  0  0
    9.9308   -0.8701   23.2486 N   0  0  0  0  0  0  0  0  0  0  0  0
    9.0466   -1.6349   22.3088 C   0  0  0  0  0  0  0  0  0  0  0  0
    8.0341   -0.6820   21.7461 C   0  0  0  0  0  0  0  0  0  0  0  0
   11.0794   -1.4321   24.0327 C   0  0  0  0  0  0  0  0  0  0  0  0
   12.4888   -1.1037   23.6383 C   0  0  0  0  0  0  0  0  0  0  0  0
   13.6374   -1.6657   24.4224 N   0  0  0  0  0  0  0  0  0  0  0  0
   13.3765   -2.5563   25.6009 C   0  0  0  0  0  0  0  0  0  0  0  0
   11.9670   -2.8848   25.9953 C   0  0  0  0  0  0  0  0  0  0  0  0
   11.7061   -3.7754   27.1738 C   0  0  0  0  0  0  0  0  0  0  0  0
   10.2966   -4.1038   27.5681 C   0  0  0  0  0  0  0  0  0  0  0  0
    9.1482   -3.5417   26.7840 C   0  0  0  0  0  0  0  0  0  0  0  0
    9.4090   -2.6512   25.6055 C   0  0  0  0  0  0  0  0  0  0  0  0
   10.8184   -2.3227   25.2112 C   0  0  0  0  0  0  0  0  0  0  0  0
    8.2694    4.4976   23.3929 C   0  0  0  0  0  0  0  0  0  0  0  0
    9.5178    5.2201   22.9814 C   0  0  0  0  0  0  0  0  0  0  0  0
    9.5746    6.7175   23.0486 C   0  0  0  0  0  0  0  0  0  0  0  0
   10.8231    7.4399   22.6371 C   0  0  0  0  0  0  0  0  0  0  0  0
   12.0148    6.6649   22.1582 N   0  0  0  0  0  0  0  0  0  0  0  0
   11.9580    5.1675   22.0910 N   0  0  0  0  0  0  0  0  0  0  0  0
   10.7095    4.4451   22.5026 C   0  0  0  0  0  0  0  0  0  0  0  0
    6.9530   -1.0230   20.7638 C   0  0  0  0  0  0  0  0  0  0  0  0
    5.7300   -1.7615   21.2208 N   0  0  0  0  0  0  0  0  0  0  0  0
    4.8798   -1.6532   20.7362 H   0  0  0  0  0  0  0  0  0  0  0  0
    5.8021   -2.6649   22.4159 C   0  0  0  0  0  0  0  0  0  0  0  0
    5.7973   -2.2300   23.8515 N   0  0  0  0  0  0  0  0  0  0  0  0
    5.8840   -3.4582   24.7082 N   0  0  0  0  0  0  0  0  0  0  0  0
    5.9423   -4.6522   23.8022 C   0  0  0  0  0  0  0  0  0  0  0  0
    5.8917   -4.1620   22.3854 S   0  0  0  0  0  0  0  0  0  0  0  0
  1  2  2  0  0  0
  2  3  1  0  0  0
  3  4  2  0  0  0
  4  5  1  0  0  0
  5  6  2  0  0  0
  6  7  1  0  0  0
  6  8  1  0  0  0
  8  9  2  0  0  0
  9 10  1  0  0  0
 10 11  1  0  0  0
 11 12  1  0  0  0
 12 28  1  0  0  0
 28 29  1  0  0  0
 29 30  2  0  0  0
 30 31  1  0  0  0
 31 32  2  0  0  0
 32 33  1  0  0  0
 33 34  2  0  0  0
 10 13  1  0  0  0
 13 14  2  0  0  0
 13 15  1  0  0  0
 15 18  1  0  0  0
 18 19  2  0  0  0
 19 20  1  0  0  0
 20 21  2  0  0  0
 21 22  1  0  0  0
 22 23  2  0  0  0
 23 24  1  0  0  0
 24 25  2  0  0  0
 25 26  1  0  0  0
 26 27  2  0  0  0
 15 16  1  0  0  0
 16 17  1  0  0  0
 17 35  1  0  0  0
 35 36  1  0  0  0
 36 38  1  0  0  0
 38 39  2  0  0  0
 39 40  1  0  0  0
 40 41  2  0  0  0
 41 42  1  0  0  0
 12  2  1  0  0  0
 34 29  1  0  0  0
 27 18  1  0  0  0
 42 38  1  0  0  0
  9  3  1  0  0  0
 17 10  1  0  0  0
 27 22  1  0  0  0
 36 37  1  0  0  0
M  END
> <minimizedAffinity>
-8.21092

> <CNNscore>
0.2791143656

> <CNNaffinity>
7.0935440063

> <CNN_VS>
1.9799100161

> <CNNaffinity_variance>
0.3477899134

$$$$



 42 48  0  0  0  0  0  0  0  0999 V2000
    8.9691    3.2245   22.5877 O   0  0  0  0  0  0  0  0  0  0  0  0
    8.6925    1.7614   22.7690 C   0  0  0  0  0  0  0  0  0  0  0  0
    9.8292    0.8009   22.9576 C   0  0  0  0  0  0  0  0  0  0  0  0
   11.2424    1.3036   22.9651 C   0  0  0  0  0  0  0  0  0  0  0  0
   12.3790    0.3432   23.1537 C   0  0  0  0  0  0  0  0  0  0  0  0
   12.1024   -1.1199   23.3350 C   0  0  0  0  0  0  0  0  0  0  0  0
   13.4415   -1.7772   23.4937 Cl  0  0  0  0  0  0  0  0  0  0  0  0
   10.6892   -1.6226   23.3275 C   0  0  0  0  0  0  0  0  0  0  0  0
    9.5526   -0.6622   23.1388 C   0  0  0  0  0  0  0  0  0  0  0  0
    8.1393   -1.1648   23.1314 C   0  0  0  0  0  0  0  0  0  0  0  0
    7.0027   -0.2044   22.9427 C   0  0  0  0  0  0  0  0  0  0  0  0
    7.2793    1.2587   22.7615 N   0  0  0  0  0  0  0  0  0  0  0  0
    6.7857   -1.8110   23.1463 C   0  0  0  0  0  0  0  0  0  0  0  0
    5.4710   -1.1076   22.9826 O   0  0  0  0  0  0  0  0  0  0  0  0
    6.9776   -3.2842   23.3537 N   0  0  0  0  0  0  0  0  0  0  0  0
    8.4497   -3.5485   23.4669 C   0  0  0  0  0  0  0  0  0  0  0  0
    9.1677   -2.2386   23.3295 C   0  0  0  0  0  0  0  0  0  0  0  0
    5.8884   -4.3125   23.4337 C   0  0  0  0  0  0  0  0  0  0  0  0
    5.4392   -5.0271   22.1939 C   0  0  0  0  0  0  0  0  0  0  0  0
    4.3500   -6.0554   22.2739 N   0  0  0  0  0  0  0  0  0  0  0  0
    3.7102   -6.3690   23.5939 C   0  0  0  0  0  0  0  0  0  0  0  0
    4.1596   -5.6543   24.8338 C   0  0  0  0  0  0  0  0  0  0  0  0
    3.5197   -5.9679   26.1538 C   0  0  0  0  0  0  0  0  0  0  0  0
    3.9691   -5.2532   27.3936 C   0  0  0  0  0  0  0  0  0  0  0  0
    5.0582   -4.2249   27.3135 C   0  0  0  0  0  0  0  0  0  0  0  0
    5.6980   -3.9113   25.9936 C   0  0  0  0  0  0  0  0  0  0  0  0
    5.2487   -4.6260   24.7537 C   0  0  0  0  0  0  0  0  0  0  0  0
    6.1426    2.2192   22.5729 C   0  0  0  0  0  0  0  0  0  0  0  0
    5.2877    2.1372   21.3431 C   0  0  0  0  0  0  0  0  0  0  0  0
    4.0981    3.0388   21.1951 C   0  0  0  0  0  0  0  0  0  0  0  0
    3.2432    2.9568   19.9653 C   0  0  0  0  0  0  0  0  0  0  0  0
    3.5779    1.9731   18.8834 N   0  0  0  0  0  0  0  0  0  0  0  0
    4.7675    1.0714   19.0314 N   0  0  0  0  0  0  0  0  0  0  0  0
    5.6224    1.1535   20.2613 C   0  0  0  0  0  0  0  0  0  0  0  0
   10.6533   -2.0379   23.3812 C   0  0  0  0  0  0  0  0  0  0  0  0
   11.3590   -1.9961   24.7042 N   0  0  0  0  0  0  0  0  0  0  0  0
   12.1282   -1.3953   24.8329 H   0  0  0  0  0  0  0  0  0  0  0  0
   10.8929   -2.8697   25.8308 C   0  0  0  0  0  0  0  0  0  0  0  0
    9.6138   -2.7113   26.5983 N   0  0  0  0  0  0  0  0  0  0  0  0
    9.5544   -3.7988   27.6297 N   0  0  0  0  0  0  0  0  0  0  0  0
   10.7968   -4.6293   27.4998 C   0  0  0  0  0  0  0  0  0  0  0  0
   11.6240   -4.0550   26.3881 S   0  0  0  0  0  0  0  0  0  0  0  0
  1  2  2  0  0  0
  2  3  1  0  0  0
  3  4  2  0  0  0
  4  5  1  0  0  0
  5  6  2  0  0  0
  6  7  1  0  0  0
  6  8  1  0  0  0
  8  9  2  0  0  0
  9 10  1  0  0  0
 10 11  1  0  0  0
 11 12  1  0  0  0
 12 28  1  0  0  0
 28 29  1  0  0  0
 29 30  2  0  0  0
 30 31  1  0  0  0
 31 32  2  0  0  0
 32 33  1  0  0  0
 33 34  2  0  0  0
 10 13  1  0  0  0
 13 14  2  0  0  0
 13 15  1  0  0  0
 15 18  1  0  0  0
 18 19  2  0  0  0
 19 20  1  0  0  0
 20 21  2  0  0  0
 21 22  1  0  0  0
 22 23  2  0  0  0
 23 24  1  0  0  0
 24 25  2  0  0  0
 25 26  1  0  0  0
 26 27  2  0  0  0
 15 16  1  0  0  0
 16 17  1  0  0  0
 17 35  1  0  0  0
 35 36  1  0  0  0
 36 38  1  0  0  0
 38 39  2  0  0  0
 39 40  1  0  0  0
 40 41  2  0  0  0
 41 42  1  0  0  0
 12  2  1  0  0  0
 34 29  1  0  0  0
 27 18  1  0  0  0
 42 38  1  0  0  0
  9  3  1  0  0  0
 17 10  1  0  0  0
 27 22  1  0  0  0
 36 37  1  0  0  0
M  END
> <minimizedAffinity>
-8.80886

> <CNNscore>
0.2714200616

> <CNNaffinity>
7.0606245995

> <CNN_VS>
1.9163951874

> <CNNaffinity_variance>
0.2259770185

$$$$
