


 42 48  0  0  0  0  0  0  0  0999 V2000
   -7.2213   -4.1117  -24.6291 O   0  0  0  0  0  0  0  0  0  0  0  0
   -7.7345   -2.7228  -24.3893 C   0  0  0  0  0  0  0  0  0  0  0  0
   -6.7741   -1.6089  -24.0938 C   0  0  0  0  0  0  0  0  0  0  0  0
   -5.3006   -1.8841  -24.0383 C   0  0  0  0  0  0  0  0  0  0  0  0
   -4.3404   -0.7703  -23.7428 C   0  0  0  0  0  0  0  0  0  0  0  0
   -4.8536    0.6186  -23.5030 C   0  0  0  0  0  0  0  0  0  0  0  0
   -3.6442    1.4669  -23.2421 Cl  0  0  0  0  0  0  0  0  0  0  0  0
   -6.3270    0.8938  -23.5586 C   0  0  0  0  0  0  0  0  0  0  0  0
   -7.2873   -0.2200  -23.8540 C   0  0  0  0  0  0  0  0  0  0  0  0
   -8.7609    0.0551  -23.9096 C   0  0  0  0  0  0  0  0  0  0  0  0
   -9.7211   -1.0587  -24.2050 C   0  0  0  0  0  0  0  0  0  0  0  0
   -9.2079   -2.4476  -24.4449 N   0  0  0  0  0  0  0  0  0  0  0  0
  -10.1993    0.4798  -23.9326 C   0  0  0  0  0  0  0  0  0  0  0  0
  -11.3771   -0.4099  -24.1994 O   0  0  0  0  0  0  0  0  0  0  0  0
  -10.2532    1.9504  -23.6419 N   0  0  0  0  0  0  0  0  0  0  0  0
   -8.8480    2.4346  -23.4392 C   0  0  0  0  0  0  0  0  0  0  0  0
   -7.9257    1.2632  -23.6047 C   0  0  0  0  0  0  0  0  0  0  0  0
  -11.4943    2.7894  -23.5670 C   0  0  0  0  0  0  0  0  0  0  0  0
  -12.4534    2.6098  -22.4278 C   0  0  0  0  0  0  0  0  0  0  0  0
  -13.6945    3.4488  -22.3529 N   0  0  0  0  0  0  0  0  0  0  0  0
  -13.9765    4.4675  -23.4172 C   0  0  0  0  0  0  0  0  0  0  0  0
  -13.0174    4.6471  -24.5565 C   0  0  0  0  0  0  0  0  0  0  0  0
  -13.2994    5.6658  -25.6208 C   0  0  0  0  0  0  0  0  0  0  0  0
  -12.3402    5.8453  -26.7600 C   0  0  0  0  0  0  0  0  0  0  0  0
  -11.0992    5.0063  -26.8349 C   0  0  0  0  0  0  0  0  0  0  0  0
  -10.8172    3.9876  -25.7705 C   0  0  0  0  0  0  0  0  0  0  0  0
  -11.7762    3.8080  -24.6314 C   0  0  0  0  0  0  0  0  0  0  0  0
  -10.1683   -3.5614  -24.7403 C   0  0  0  0  0  0  0  0  0  0  0  0
   -9.8643   -4.5440  -25.8321 C   0  0  0  0  0  0  0  0  0  0  0  0
   -9.7996   -6.0107  -25.5245 C   0  0  0  0  0  0  0  0  0  0  0  0
   -9.4956   -6.9933  -26.6163 C   0  0  0  0  0  0  0  0  0  0  0  0
   -9.2564   -6.5091  -28.0158 N   0  0  0  0  0  0  0  0  0  0  0  0
   -9.3211   -5.0425  -28.3234 N   0  0  0  0  0  0  0  0  0  0  0  0
   -9.6251   -4.0599  -27.2315 C   0  0  0  0  0  0  0  0  0  0  0  0
   -6.4308    1.2946  -23.4861 C   0  0  0  0  0  0  0  0  0  0  0  0
   -5.7894    1.6426  -22.1755 N   0  0  0  0  0  0  0  0  0  0  0  0
   -5.1987    2.4274  -22.1097 H   0  0  0  0  0  0  0  0  0  0  0  0
   -6.0480    0.7950  -20.9654 C   0  0  0  0  0  0  0  0  0  0  0  0
   -7.3553    0.1574  -20.5984 N   0  0  0  0  0  0  0  0  0  0  0  0
   -7.1599   -0.5955  -19.3159 N   0  0  0  0  0  0  0  0  0  0  0  0
   -5.7320   -0.4232  -18.8901 C   0  0  0  0  0  0  0  0  0  0  0  0
   -5.0448    0.4362  -19.9095 S   0  0  0  0  0  0  0  0  0  0  0  0
  1  2  2  0  0  0
  2  3  1  0  0  0
  3  4  2  0  0  0
  4  5  1  0  0  0
  5  6  2  0  0  0
  6  7  1  0  0  0
  6  8  1  0  0  0
  8  9  2  0  0  0
  9 10  1  0  0  0
 10 11  1  0  0  0
 11 12  1  0  0  0
 12 28  1  0  0  0
 28 29  1  0  0  0
 29 30  2  0  0  0
 30 31  1  0  0  0
 31 32  2  0  0  0
 32 33  1  0  0  0
 33 34  2  0  0  0
 10 13  1  0  0  0
 13 14  2  0  0  0
 13 15  1  0  0  0
 15 18  1  0  0  0
 18 19  2  0  0  0
 19 20  1  0  0  0
 20 21  2  0  0  0
 21 22  1  0  0  0
 22 23  2  0  0  0
 23 24  1  0  0  0
 24 25  2  0  0  0
 25 26  1  0  0  0
 26 27  2  0  0  0
 15 16  1  0  0  0
 16 17  1  0  0  0
 17 35  1  0  0  0
 35 36  1  0  0  0
 36 38  1  0  0  0
 38 39  2  0  0  0
 39 40  1  0  0  0
 40 41  2  0  0  0
 41 42  1  0  0  0
 12  2  1  0  0  0
 34 29  1  0  0  0
 27 18  1  0  0  0
 42 38  1  0  0  0
  9  3  1  0  0  0
 17 10  1  0  0  0
 27 22  1  0  0  0
 36 37  1  0  0  0
M  END
> <minimizedAffinity>
-8.09532

> <CNNscore>
0.5538711548

> <CNNaffinity>
6.9393029213

> <CNN_VS>
3.8434796333

> <CNNaffinity_variance>
0.0546602197

$$$$



 42 48  0  0  0  0  0  0  0  0999 V2000
  -12.5866   -0.8798  -23.9956 O   0  0  0  0  0  0  0  0  0  0  0  0
  -11.1380   -0.9617  -23.6151 C   0  0  0  0  0  0  0  0  0  0  0  0
  -10.3386   -2.1820  -23.9643 C   0  0  0  0  0  0  0  0  0  0  0  0
  -10.9879   -3.3204  -24.6940 C   0  0  0  0  0  0  0  0  0  0  0  0
  -10.1885   -4.5406  -25.0432 C   0  0  0  0  0  0  0  0  0  0  0  0
   -8.7399   -4.6225  -24.6627 C   0  0  0  0  0  0  0  0  0  0  0  0
   -8.2574   -5.9542  -25.1566 Cl  0  0  0  0  0  0  0  0  0  0  0  0
   -8.0907   -3.4842  -23.9329 C   0  0  0  0  0  0  0  0  0  0  0  0
   -8.8900   -2.2639  -23.5838 C   0  0  0  0  0  0  0  0  0  0  0  0
   -8.2408   -1.1255  -22.8540 C   0  0  0  0  0  0  0  0  0  0  0  0
   -9.0401    0.0948  -22.5048 C   0  0  0  0  0  0  0  0  0  0  0  0
  -10.4887    0.1767  -22.8853 N   0  0  0  0  0  0  0  0  0  0  0  0
   -7.4594   -0.0719  -22.1263 C   0  0  0  0  0  0  0  0  0  0  0  0
   -7.9894    1.2485  -21.6515 O   0  0  0  0  0  0  0  0  0  0  0  0
   -6.0549   -0.5706  -21.9569 N   0  0  0  0  0  0  0  0  0  0  0  0
   -5.9682   -1.9324  -22.5798 C   0  0  0  0  0  0  0  0  0  0  0  0
   -7.3192   -2.2753  -23.1342 C   0  0  0  0  0  0  0  0  0  0  0  0
   -4.9339    0.1636  -21.2828 C   0  0  0  0  0  0  0  0  0  0  0  0
   -5.0334    0.5115  -19.8272 C   0  0  0  0  0  0  0  0  0  0  0  0
   -3.9124    1.2457  -19.1532 N   0  0  0  0  0  0  0  0  0  0  0  0
   -2.6919    1.6320  -19.9349 C   0  0  0  0  0  0  0  0  0  0  0  0
   -2.5924    1.2840  -21.3906 C   0  0  0  0  0  0  0  0  0  0  0  0
   -1.3717    1.6704  -22.1723 C   0  0  0  0  0  0  0  0  0  0  0  0
   -1.2723    1.3224  -23.6280 C   0  0  0  0  0  0  0  0  0  0  0  0
   -2.3933    0.5883  -24.3019 C   0  0  0  0  0  0  0  0  0  0  0  0
   -3.6138    0.2020  -23.5202 C   0  0  0  0  0  0  0  0  0  0  0  0
   -3.7134    0.5499  -22.0646 C   0  0  0  0  0  0  0  0  0  0  0  0
  -11.2881    1.3970  -22.5361 C   0  0  0  0  0  0  0  0  0  0  0  0
  -11.5674    2.4353  -23.5820 C   0  0  0  0  0  0  0  0  0  0  0  0
  -12.9660    2.9383  -23.7848 C   0  0  0  0  0  0  0  0  0  0  0  0
  -13.2453    3.9765  -24.8307 C   0  0  0  0  0  0  0  0  0  0  0  0
  -12.1261    4.5118  -25.6740 N   0  0  0  0  0  0  0  0  0  0  0  0
  -10.7276    4.0087  -25.4712 N   0  0  0  0  0  0  0  0  0  0  0  0
  -10.4483    2.9704  -24.4252 C   0  0  0  0  0  0  0  0  0  0  0  0
   -7.6844   -3.5451  -23.8443 C   0  0  0  0  0  0  0  0  0  0  0  0
   -6.6934   -4.6679  -23.9307 N   0  0  0  0  0  0  0  0  0  0  0  0
   -6.3444   -4.9500  -24.8070 H   0  0  0  0  0  0  0  0  0  0  0  0
   -6.2343   -5.3608  -22.6822 C   0  0  0  0  0  0  0  0  0  0  0  0
   -5.6227   -4.7012  -21.4817 N   0  0  0  0  0  0  0  0  0  0  0  0
   -5.3165   -5.7678  -20.4725 N   0  0  0  0  0  0  0  0  0  0  0  0
   -5.7387   -7.0866  -21.0491 C   0  0  0  0  0  0  0  0  0  0  0  0
   -6.3059   -6.8351  -22.4148 S   0  0  0  0  0  0  0  0  0  0  0  0
  1  2  2  0  0  0
  2  3  1  0  0  0
  3  4  2  0  0  0
  4  5  1  0  0  0
  5  6  2  0  0  0
  6  7  1  0  0  0
  6  8  1  0  0  0
  8  9  2  0  0  0
  9 10  1  0  0  0
 10 11  1  0  0  0
 11 12  1  0  0  0
 12 28  1  0  0  0
 28 29  1  0  0  0
 29 30  2  0  0  0
 30 31  1  0  0  0
 31 32  2  0  0  0
 32 33  1  0  0  0
 33 34  2  0  0  0
 10 13  1  0  0  0
 13 14  2  0  0  0
 13 15  1  0  0  0
 15 18  1  0  0  0
 18 19  2  0  0  0
 19 20  1  0  0  0
 20 21  2  0  0  0
 21 22  1  0  0  0
 22 23  2  0  0  0
 23 24  1  0  0  0
 24 25  2  0  0  0
 25 26  1  0  0  0
 26 27  2  0  0  0
 15 16  1  0  0  0
 16 17  1  0  0  0
 17 35  1  0  0  0
 35 36  1  0  0  0
 36 38  1  0  0  0
 38 39  2  0  0  0
 39 40  1  0  0  0
 40 41  2  0  0  0
 41 42  1  0  0  0
 12  2  1  0  0  0
 34 29  1  0  0  0
 27 18  1  0  0  0
 42 38  1  0  0  0
  9  3  1  0  0  0
 17 10  1  0  0  0
 27 22  1  0  0  0
 36 37  1  0  0  0
M  END
> <minimizedAffinity>
-9.02036

> <CNNscore>
0.5354918242

> <CNNaffinity>
6.9048833847

> <CNN_VS>
3.6975085735

> <CNNaffinity_variance>
0.1476510763

$$$$



 42 48  0  0  0  0  0  0  0  0999 V2000
   -5.2678   -3.5115  -20.6460 O   0  0  0  0  0  0  0  0  0  0  0  0
   -6.1300   -2.5571  -21.4179 C   0  0  0  0  0  0  0  0  0  0  0  0
   -7.0601   -3.0738  -22.4753 C   0  0  0  0  0  0  0  0  0  0  0  0
   -7.1280   -4.5448  -22.7608 C   0  0  0  0  0  0  0  0  0  0  0  0
   -8.0580   -5.0614  -23.8181 C   0  0  0  0  0  0  0  0  0  0  0  0
   -8.9202   -4.1070  -24.5900 C   0  0  0  0  0  0  0  0  0  0  0  0
   -9.7118   -4.9472  -25.5480 Cl  0  0  0  0  0  0  0  0  0  0  0  0
   -8.8524   -2.6360  -24.3045 C   0  0  0  0  0  0  0  0  0  0  0  0
   -7.9223   -2.1194  -23.2471 C   0  0  0  0  0  0  0  0  0  0  0  0
   -7.8544   -0.6483  -22.9616 C   0  0  0  0  0  0  0  0  0  0  0  0
   -6.9243   -0.1317  -21.9043 C   0  0  0  0  0  0  0  0  0  0  0  0
   -6.0621   -1.0861  -21.1324 N   0  0  0  0  0  0  0  0  0  0  0  0
   -7.8951    0.8410  -22.7881 C   0  0  0  0  0  0  0  0  0  0  0  0
   -7.0807    1.6375  -21.8122 O   0  0  0  0  0  0  0  0  0  0  0  0
   -8.8931    1.3941  -23.7617 N   0  0  0  0  0  0  0  0  0  0  0  0
   -9.4693    0.2465  -24.5370 C   0  0  0  0  0  0  0  0  0  0  0  0
   -8.8273   -1.0157  -24.0425 C   0  0  0  0  0  0  0  0  0  0  0  0
   -9.2520    2.8407  -23.9305 C   0  0  0  0  0  0  0  0  0  0  0  0
   -8.2390    3.8068  -24.4693 C   0  0  0  0  0  0  0  0  0  0  0  0
   -8.5978    5.2534  -24.6381 N   0  0  0  0  0  0  0  0  0  0  0  0
   -9.9697    5.7339  -24.2678 C   0  0  0  0  0  0  0  0  0  0  0  0
  -10.9827    4.7678  -23.7289 C   0  0  0  0  0  0  0  0  0  0  0  0
  -12.3547    5.2484  -23.3587 C   0  0  0  0  0  0  0  0  0  0  0  0
  -13.3676    4.2822  -22.8198 C   0  0  0  0  0  0  0  0  0  0  0  0
  -13.0087    2.8356  -22.6511 C   0  0  0  0  0  0  0  0  0  0  0  0
  -11.6368    2.3551  -23.0213 C   0  0  0  0  0  0  0  0  0  0  0  0
  -10.6239    3.3212  -23.5602 C   0  0  0  0  0  0  0  0  0  0  0  0
   -5.1320   -0.5694  -20.0750 C   0  0  0  0  0  0  0  0  0  0  0  0
   -4.1154    0.4790  -20.4175 C   0  0  0  0  0  0  0  0  0  0  0  0
   -3.5301    0.5337  -21.7975 C   0  0  0  0  0  0  0  0  0  0  0  0
   -2.5136    1.5821  -22.1400 C   0  0  0  0  0  0  0  0  0  0  0  0
   -2.0823    2.5759  -21.1025 N   0  0  0  0  0  0  0  0  0  0  0  0
   -2.6676    2.5213  -19.7225 N   0  0  0  0  0  0  0  0  0  0  0  0
   -3.6842    1.4728  -19.3800 C   0  0  0  0  0  0  0  0  0  0  0  0
   -9.1089   -2.4021  -24.5414 C   0  0  0  0  0  0  0  0  0  0  0  0
  -10.2233   -3.2045  -23.9379 N   0  0  0  0  0  0  0  0  0  0  0  0
  -10.1316   -4.1801  -23.8423 H   0  0  0  0  0  0  0  0  0  0  0  0
  -11.4774   -2.5208  -23.4803 C   0  0  0  0  0  0  0  0  0  0  0  0
  -12.4327   -3.0328  -22.4432 N   0  0  0  0  0  0  0  0  0  0  0  0
  -13.5422   -2.0334  -22.3013 N   0  0  0  0  0  0  0  0  0  0  0  0
  -13.2727   -0.9037  -23.2506 C   0  0  0  0  0  0  0  0  0  0  0  0
  -11.9966   -1.2049  -23.9792 S   0  0  0  0  0  0  0  0  0  0  0  0
  1  2  2  0  0  0
  2  3  1  0  0  0
  3  4  2  0  0  0
  4  5  1  0  0  0
  5  6  2  0  0  0
  6  7  1  0  0  0
  6  8  1  0  0  0
  8  9  2  0  0  0
  9 10  1  0  0  0
 10 11  1  0  0  0
 11 12  1  0  0  0
 12 28  1  0  0  0
 28 29  1  0  0  0
 29 30  2  0  0  0
 30 31  1  0  0  0
 31 32  2  0  0  0
 32 33  1  0  0  0
 33 34  2  0  0  0
 10 13  1  0  0  0
 13 14  2  0  0  0
 13 15  1  0  0  0
 15 18  1  0  0  0
 18 19  2  0  0  0
 19 20  1  0  0  0
 20 21  2  0  0  0
 21 22  1  0  0  0
 22 23  2  0  0  0
 23 24  1  0  0  0
 24 25  2  0  0  0
 25 26  1  0  0  0
 26 27  2  0  0  0
 15 16  1  0  0  0
 16 17  1  0  0  0
 17 35  1  0  0  0
 35 36  1  0  0  0
 36 38  1  0  0  0
 38 39  2  0  0  0
 39 40  1  0  0  0
 40 41  2  0  0  0
 41 42  1  0  0  0
 12  2  1  0  0  0
 34 29  1  0  0  0
 27 18  1  0  0  0
 42 38  1  0  0  0
  9  3  1  0  0  0
 17 10  1  0  0  0
 27 22  1  0  0  0
 36 37  1  0  0  0
M  END
> <minimizedAffinity>
-8.87446

> <CNNscore>
0.4140712023

> <CNNaffinity>
6.9253640175

> <CNN_VS>
2.8675937653

> <CNNaffinity_variance>
0.3206070065

$$$$



 42 48  0  0  0  0  0  0  0  0999 V2000
  -11.5294    0.0853  -24.4426 O   0  0  0  0  0  0  0  0  0  0  0  0
  -10.1451    0.4434  -23.9896 C   0  0  0  0  0  0  0  0  0  0  0  0
   -9.2352   -0.6186  -23.4470 C   0  0  0  0  0  0  0  0  0  0  0  0
   -9.7098   -2.0387  -23.3575 C   0  0  0  0  0  0  0  0  0  0  0  0
   -8.8000   -3.1007  -22.8149 C   0  0  0  0  0  0  0  0  0  0  0  0
   -7.4156   -2.7426  -22.3618 C   0  0  0  0  0  0  0  0  0  0  0  0
   -6.7925   -4.0215  -21.8862 Cl  0  0  0  0  0  0  0  0  0  0  0  0
   -6.9411   -1.3225  -22.4513 C   0  0  0  0  0  0  0  0  0  0  0  0
   -7.8509   -0.2605  -22.9939 C   0  0  0  0  0  0  0  0  0  0  0  0
   -7.3763    1.1597  -23.0834 C   0  0  0  0  0  0  0  0  0  0  0  0
   -8.2861    2.2217  -23.6260 C   0  0  0  0  0  0  0  0  0  0  0  0
   -9.6705    1.8635  -24.0791 N   0  0  0  0  0  0  0  0  0  0  0  0
   -6.7659    2.5296  -23.1123 C   0  0  0  0  0  0  0  0  0  0  0  0
   -7.4327    3.7818  -23.5994 O   0  0  0  0  0  0  0  0  0  0  0  0
   -5.3716    2.4274  -22.5687 N   0  0  0  0  0  0  0  0  0  0  0  0
   -5.1203    0.9943  -22.2038 C   0  0  0  0  0  0  0  0  0  0  0  0
   -6.3593    0.2109  -22.5219 C   0  0  0  0  0  0  0  0  0  0  0  0
   -4.3994    3.5594  -22.4167 C   0  0  0  0  0  0  0  0  0  0  0  0
   -4.6901    4.8878  -23.0496 C   0  0  0  0  0  0  0  0  0  0  0  0
   -3.7179    6.0199  -22.8976 N   0  0  0  0  0  0  0  0  0  0  0  0
   -2.4549    5.8235  -22.1126 C   0  0  0  0  0  0  0  0  0  0  0  0
   -2.1642    4.4951  -21.4796 C   0  0  0  0  0  0  0  0  0  0  0  0
   -0.9011    4.2987  -20.6945 C   0  0  0  0  0  0  0  0  0  0  0  0
   -0.6104    2.9702  -20.0616 C   0  0  0  0  0  0  0  0  0  0  0  0
   -1.5827    1.8382  -20.2136 C   0  0  0  0  0  0  0  0  0  0  0  0
   -2.8457    2.0346  -20.9987 C   0  0  0  0  0  0  0  0  0  0  0  0
   -3.1364    3.3630  -21.6316 C   0  0  0  0  0  0  0  0  0  0  0  0
  -10.5803    2.9256  -24.6217 C   0  0  0  0  0  0  0  0  0  0  0  0
  -11.7214    3.4321  -23.7902 C   0  0  0  0  0  0  0  0  0  0  0  0
  -12.3682    4.7438  -24.1239 C   0  0  0  0  0  0  0  0  0  0  0  0
  -13.5093    5.2503  -23.2925 C   0  0  0  0  0  0  0  0  0  0  0  0
  -14.0037    4.4452  -22.1273 N   0  0  0  0  0  0  0  0  0  0  0  0
  -13.3569    3.1335  -21.7937 N   0  0  0  0  0  0  0  0  0  0  0  0
  -12.2157    2.6270  -22.6252 C   0  0  0  0  0  0  0  0  0  0  0  0
   -6.5481   -1.2627  -22.3148 C   0  0  0  0  0  0  0  0  0  0  0  0
   -6.9937   -1.7816  -20.9798 N   0  0  0  0  0  0  0  0  0  0  0  0
   -7.6961   -2.4695  -20.9286 H   0  0  0  0  0  0  0  0  0  0  0  0
   -6.3692   -1.2525  -19.7229 C   0  0  0  0  0  0  0  0  0  0  0  0
   -5.8351   -2.0767  -18.5891 N   0  0  0  0  0  0  0  0  0  0  0  0
   -5.3049   -1.1398  -17.5445 N   0  0  0  0  0  0  0  0  0  0  0  0
   -5.5114    0.2634  -18.0327 C   0  0  0  0  0  0  0  0  0  0  0  0
   -6.1691    0.1938  -19.3790 S   0  0  0  0  0  0  0  0  0  0  0  0
  1  2  2  0  0  0
  2  3  1  0  0  0
  3  4  2  0  0  0
  4  5  1  0  0  0
  5  6  2  0  0  0
  6  7  1  0  0  0
  6  8  1  0  0  0
  8  9  2  0  0  0
  9 10  1  0  0  0
 10 11  1  0  0  0
 11 12  1  0  0  0
 12 28  1  0  0  0
 28 29  1  0  0  0
 29 30  2  0  0  0
 30 31  1  0  0  0
 31 32  2  0  0  0
 32 33  1  0  0  0
 33 34  2  0  0  0
 10 13  1  0  0  0
 13 14  2  0  0  0
 13 15  1  0  0  0
 15 18  1  0  0  0
 18 19  2  0  0  0
 19 20  1  0  0  0
 20 21  2  0  0  0
 21 22  1  0  0  0
 22 23  2  0  0  0
 23 24  1  0  0  0
 24 25  2  0  0  0
 25 26  1  0  0  0
 26 27  2  0  0  0
 15 16  1  0  0  0
 16 17  1  0  0  0
 17 35  1  0  0  0
 35 36  1  0  0  0
 36 38  1  0  0  0
 38 39  2  0  0  0
 39 40  1  0  0  0
 40 41  2  0  0  0
 41 42  1  0  0  0
 12  2  1  0  0  0
 34 29  1  0  0  0
 27 18  1  0  0  0
 42 38  1  0  0  0
  9  3  1  0  0  0
 17 10  1  0  0  0
 27 22  1  0  0  0
 36 37  1  0  0  0
M  END
> <minimizedAffinity>
-8.01237

> <CNNscore>
0.3099818230

> <CNNaffinity>
6.9035720825

> <CNN_VS>
2.1399817467

> <CNNaffinity_variance>
0.0898290724

$$$$



 42 48  0  0  0  0  0  0  0  0999 V2000
  -12.4954   -0.9522  -23.5166 O   0  0  0  0  0  0  0  0  0  0  0  0
  -11.0063   -1.0941  -23.6280 C   0  0  0  0  0  0  0  0  0  0  0  0
  -10.4113   -2.3683  -24.1501 C   0  0  0  0  0  0  0  0  0  0  0  0
  -11.3054   -3.5005  -24.5607 C   0  0  0  0  0  0  0  0  0  0  0  0
  -10.7104   -4.7746  -25.0827 C   0  0  0  0  0  0  0  0  0  0  0  0
   -9.2213   -4.9165  -25.1942 C   0  0  0  0  0  0  0  0  0  0  0  0
   -8.9769   -6.2912  -25.7425 Cl  0  0  0  0  0  0  0  0  0  0  0  0
   -8.3272   -3.7843  -24.7836 C   0  0  0  0  0  0  0  0  0  0  0  0
   -8.9222   -2.5102  -24.2616 C   0  0  0  0  0  0  0  0  0  0  0  0
   -8.0281   -1.3779  -23.8510 C   0  0  0  0  0  0  0  0  0  0  0  0
   -8.6231   -0.1038  -23.3289 C   0  0  0  0  0  0  0  0  0  0  0  0
  -10.1122    0.0381  -23.2174 N   0  0  0  0  0  0  0  0  0  0  0  0
   -7.0131   -0.3373  -23.4809 C   0  0  0  0  0  0  0  0  0  0  0  0
   -7.3090    1.0279  -22.9343 O   0  0  0  0  0  0  0  0  0  0  0  0
   -5.6502   -0.9016  -23.7533 N   0  0  0  0  0  0  0  0  0  0  0  0
   -5.8229   -2.2909  -24.2917 C   0  0  0  0  0  0  0  0  0  0  0  0
   -7.2925   -2.5853  -24.3521 C   0  0  0  0  0  0  0  0  0  0  0  0
   -4.3440   -0.1997  -23.5269 C   0  0  0  0  0  0  0  0  0  0  0  0
   -3.3776   -0.0296  -24.6613 C   0  0  0  0  0  0  0  0  0  0  0  0
   -2.0714    0.6722  -24.4350 N   0  0  0  0  0  0  0  0  0  0  0  0
   -1.7317    1.2040  -23.0742 C   0  0  0  0  0  0  0  0  0  0  0  0
   -2.6982    1.0339  -21.9397 C   0  0  0  0  0  0  0  0  0  0  0  0
   -2.3584    1.5656  -20.5788 C   0  0  0  0  0  0  0  0  0  0  0  0
   -3.3249    1.3955  -19.4444 C   0  0  0  0  0  0  0  0  0  0  0  0
   -4.6311    0.6936  -19.6708 C   0  0  0  0  0  0  0  0  0  0  0  0
   -4.9708    0.1619  -21.0316 C   0  0  0  0  0  0  0  0  0  0  0  0
   -4.0044    0.3320  -22.1660 C   0  0  0  0  0  0  0  0  0  0  0  0
  -10.7072    1.3123  -22.6954 C   0  0  0  0  0  0  0  0  0  0  0  0
  -11.1937    2.3601  -23.6521 C   0  0  0  0  0  0  0  0  0  0  0  0
  -12.6378    2.7658  -23.6494 C   0  0  0  0  0  0  0  0  0  0  0  0
  -13.1243    3.8135  -24.6062 C   0  0  0  0  0  0  0  0  0  0  0  0
  -12.1666    4.4557  -25.5657 N   0  0  0  0  0  0  0  0  0  0  0  0
  -10.7225    4.0500  -25.5684 N   0  0  0  0  0  0  0  0  0  0  0  0
  -10.2361    3.0022  -24.6116 C   0  0  0  0  0  0  0  0  0  0  0  0
   -7.9169   -3.8628  -24.8298 C   0  0  0  0  0  0  0  0  0  0  0  0
   -8.1878   -4.9740  -23.8593 N   0  0  0  0  0  0  0  0  0  0  0  0
   -9.0811   -5.3858  -23.8194 H   0  0  0  0  0  0  0  0  0  0  0  0
   -7.0977   -5.4579  -22.9498 C   0  0  0  0  0  0  0  0  0  0  0  0
   -6.2377   -4.5997  -22.0698 N   0  0  0  0  0  0  0  0  0  0  0  0
   -5.2846   -5.4964  -21.3366 N   0  0  0  0  0  0  0  0  0  0  0  0
   -5.5554   -6.9087  -21.7634 C   0  0  0  0  0  0  0  0  0  0  0  0
   -6.6759   -6.8849  -22.7603 S   0  0  0  0  0  0  0  0  0  0  0  0
  1  2  2  0  0  0
  2  3  1  0  0  0
  3  4  2  0  0  0
  4  5  1  0  0  0
  5  6  2  0  0  0
  6  7  1  0  0  0
  6  8  1  0  0  0
  8  9  2  0  0  0
  9 10  1  0  0  0
 10 11  1  0  0  0
 11 12  1  0  0  0
 12 28  1  0  0  0
 28 29  1  0  0  0
 29 30  2  0  0  0
 30 31  1  0  0  0
 31 32  2  0  0  0
 32 33  1  0  0  0
 33 34  2  0  0  0
 10 13  1  0  0  0
 13 14  2  0  0  0
 13 15  1  0  0  0
 15 18  1  0  0  0
 18 19  2  0  0  0
 19 20  1  0  0  0
 20 21  2  0  0  0
 21 22  1  0  0  0
 22 23  2  0  0  0
 23 24  1  0  0  0
 24 25  2  0  0  0
 25 26  1  0  0  0
 26 27  2  0  0  0
 15 16  1  0  0  0
 16 17  1  0  0  0
 17 35  1  0  0  0
 35 36  1  0  0  0
 36 38  1  0  0  0
 38 39  2  0  0  0
 39 40  1  0  0  0
 40 41  2  0  0  0
 41 42  1  0  0  0
 12  2  1  0  0  0
 34 29  1  0  0  0
 27 18  1  0  0  0
 42 38  1  0  0  0
  9  3  1  0  0  0
 17 10  1  0  0  0
 27 22  1  0  0  0
 36 37  1  0  0  0
M  END
> <minimizedAffinity>
-8.18874

> <CNNscore>
0.3078604341

> <CNNaffinity>
6.6729516983

> <CNN_VS>
2.0543377399

> <CNNaffinity_variance>
0.1396901608

$$$$



 42 48  0  0  0  0  0  0  0  0999 V2000
   -7.9697   -5.1135  -23.3394 O   0  0  0  0  0  0  0  0  0  0  0  0
   -8.3871   -3.6786  -23.2098 C   0  0  0  0  0  0  0  0  0  0  0  0
   -7.5380   -2.7180  -22.4310 C   0  0  0  0  0  0  0  0  0  0  0  0
   -6.2716   -3.1924  -21.7819 C   0  0  0  0  0  0  0  0  0  0  0  0
   -5.4226   -2.2318  -21.0032 C   0  0  0  0  0  0  0  0  0  0  0  0
   -5.8399   -0.7969  -20.8736 C   0  0  0  0  0  0  0  0  0  0  0  0
   -4.7808   -0.1316  -20.0454 Cl  0  0  0  0  0  0  0  0  0  0  0  0
   -7.1063   -0.3225  -21.5226 C   0  0  0  0  0  0  0  0  0  0  0  0
   -7.9553   -1.2831  -22.3013 C   0  0  0  0  0  0  0  0  0  0  0  0
   -9.2217   -0.8087  -22.9504 C   0  0  0  0  0  0  0  0  0  0  0  0
  -10.0707   -1.7693  -23.7291 C   0  0  0  0  0  0  0  0  0  0  0  0
   -9.6534   -3.2042  -23.8588 N   0  0  0  0  0  0  0  0  0  0  0  0
  -10.4551   -0.1924  -23.5411 C   0  0  0  0  0  0  0  0  0  0  0  0
  -11.4877   -0.9027  -24.3652 O   0  0  0  0  0  0  0  0  0  0  0  0
  -10.4746    1.2591  -23.1631 N   0  0  0  0  0  0  0  0  0  0  0  0
   -9.2532    1.5398  -22.3387 C   0  0  0  0  0  0  0  0  0  0  0  0
   -8.4789    0.2618  -22.2073 C   0  0  0  0  0  0  0  0  0  0  0  0
  -11.5301    2.2549  -23.5427 C   0  0  0  0  0  0  0  0  0  0  0  0
  -12.8711    2.2191  -22.8718 C   0  0  0  0  0  0  0  0  0  0  0  0
  -13.9266    3.2149  -23.2514 N   0  0  0  0  0  0  0  0  0  0  0  0
  -13.6410    4.2466  -24.3021 C   0  0  0  0  0  0  0  0  0  0  0  0
  -12.2999    4.2825  -24.9731 C   0  0  0  0  0  0  0  0  0  0  0  0
  -12.0144    5.3144  -26.0238 C   0  0  0  0  0  0  0  0  0  0  0  0
  -10.6733    5.3502  -26.6948 C   0  0  0  0  0  0  0  0  0  0  0  0
   -9.6179    4.3543  -26.3151 C   0  0  0  0  0  0  0  0  0  0  0  0
   -9.9034    3.3226  -25.2644 C   0  0  0  0  0  0  0  0  0  0  0  0
  -11.2444    3.2867  -24.5934 C   0  0  0  0  0  0  0  0  0  0  0  0
  -10.5025   -4.1648  -24.6376 C   0  0  0  0  0  0  0  0  0  0  0  0
   -9.9830   -4.7624  -25.9115 C   0  0  0  0  0  0  0  0  0  0  0  0
  -10.2494   -6.2045  -26.2268 C   0  0  0  0  0  0  0  0  0  0  0  0
   -9.7299   -6.8021  -27.5007 C   0  0  0  0  0  0  0  0  0  0  0  0
   -8.9440   -5.9575  -28.4595 N   0  0  0  0  0  0  0  0  0  0  0  0
   -8.6777   -4.5154  -28.1443 N   0  0  0  0  0  0  0  0  0  0  0  0
   -9.1972   -3.9178  -26.8702 C   0  0  0  0  0  0  0  0  0  0  0  0
   -7.1884    0.0854  -21.4634 C   0  0  0  0  0  0  0  0  0  0  0  0
   -5.9017    0.5611  -22.0701 N   0  0  0  0  0  0  0  0  0  0  0  0
   -5.2192   -0.0907  -22.3506 H   0  0  0  0  0  0  0  0  0  0  0  0
   -5.6548    2.0296  -22.2496 C   0  0  0  0  0  0  0  0  0  0  0  0
   -6.6550    3.1254  -22.0283 N   0  0  0  0  0  0  0  0  0  0  0  0
   -5.9827    4.4333  -22.3239 N   0  0  0  0  0  0  0  0  0  0  0  0
   -4.5670    4.1459  -22.7278 C   0  0  0  0  0  0  0  0  0  0  0  0
   -4.3643    2.6604  -22.6819 S   0  0  0  0  0  0  0  0  0  0  0  0
  1  2  2  0  0  0
  2  3  1  0  0  0
  3  4  2  0  0  0
  4  5  1  0  0  0
  5  6  2  0  0  0
  6  7  1  0  0  0
  6  8  1  0  0  0
  8  9  2  0  0  0
  9 10  1  0  0  0
 10 11  1  0  0  0
 11 12  1  0  0  0
 12 28  1  0  0  0
 28 29  1  0  0  0
 29 30  2  0  0  0
 30 31  1  0  0  0
 31 32  2  0  0  0
 32 33  1  0  0  0
 33 34  2  0  0  0
 10 13  1  0  0  0
 13 14  2  0  0  0
 13 15  1  0  0  0
 15 18  1  0  0  0
 18 19  2  0  0  0
 19 20  1  0  0  0
 20 21  2  0  0  0
 21 22  1  0  0  0
 22 23  2  0  0  0
 23 24  1  0  0  0
 24 25  2  0  0  0
 25 26  1  0  0  0
 26 27  2  0  0  0
 15 16  1  0  0  0
 16 17  1  0  0  0
 17 35  1  0  0  0
 35 36  1  0  0  0
 36 38  1  0  0  0
 38 39  2  0  0  0
 39 40  1  0  0  0
 40 41  2  0  0  0
 41 42  1  0  0  0
 12  2  1  0  0  0
 34 29  1  0  0  0
 27 18  1  0  0  0
 42 38  1  0  0  0
  9  3  1  0  0  0
 17 10  1  0  0  0
 27 22  1  0  0  0
 36 37  1  0  0  0
M  END
> <minimizedAffinity>
-8.79548

> <CNNscore>
0.3050546646

> <CNNaffinity>
6.7797164917

> <CNN_VS>
2.0681841373

> <CNNaffinity_variance>
0.1727380604

$$$$



 42 48  0  0  0  0  0  0  0  0999 V2000
   -2.7082    3.9402  -21.4269 O   0  0  0  0  0  0  0  0  0  0  0  0
   -3.9560    3.3702  -22.0336 C   0  0  0  0  0  0  0  0  0  0  0  0
   -4.5842    4.0363  -23.2218 C   0  0  0  0  0  0  0  0  0  0  0  0
   -3.9644    5.2722  -23.8034 C   0  0  0  0  0  0  0  0  0  0  0  0
   -4.5926    5.9382  -24.9916 C   0  0  0  0  0  0  0  0  0  0  0  0
   -5.8404    5.3682  -25.5982 C   0  0  0  0  0  0  0  0  0  0  0  0
   -6.1890    6.2668  -26.7477 Cl  0  0  0  0  0  0  0  0  0  0  0  0
   -6.4601    4.1323  -25.0166 C   0  0  0  0  0  0  0  0  0  0  0  0
   -5.8320    3.4663  -23.8284 C   0  0  0  0  0  0  0  0  0  0  0  0
   -6.4517    2.2302  -23.2468 C   0  0  0  0  0  0  0  0  0  0  0  0
   -5.8236    1.5642  -22.0586 C   0  0  0  0  0  0  0  0  0  0  0  0
   -4.5757    2.1342  -21.4520 N   0  0  0  0  0  0  0  0  0  0  0  0
   -7.1813    1.0068  -22.7767 C   0  0  0  0  0  0  0  0  0  0  0  0
   -6.7911    0.1385  -21.6175 O   0  0  0  0  0  0  0  0  0  0  0  0
   -8.3696    0.8040  -23.6694 N   0  0  0  0  0  0  0  0  0  0  0  0
   -8.3744    1.9022  -24.6912 C   0  0  0  0  0  0  0  0  0  0  0  0
   -7.1891    2.7836  -24.4300 C   0  0  0  0  0  0  0  0  0  0  0  0
   -9.3762   -0.3026  -23.5595 C   0  0  0  0  0  0  0  0  0  0  0  0
   -8.9220   -1.7320  -23.5563 C   0  0  0  0  0  0  0  0  0  0  0  0
   -9.9286   -2.8386  -23.4464 N   0  0  0  0  0  0  0  0  0  0  0  0
  -11.3896   -2.5157  -23.3398 C   0  0  0  0  0  0  0  0  0  0  0  0
  -11.8438   -1.0861  -23.3431 C   0  0  0  0  0  0  0  0  0  0  0  0
  -13.3048   -0.7631  -23.2365 C   0  0  0  0  0  0  0  0  0  0  0  0
  -13.7590    0.6665  -23.2398 C   0  0  0  0  0  0  0  0  0  0  0  0
  -12.7523    1.7730  -23.3497 C   0  0  0  0  0  0  0  0  0  0  0  0
  -11.2914    1.4500  -23.4563 C   0  0  0  0  0  0  0  0  0  0  0  0
  -10.8372    0.0205  -23.4530 C   0  0  0  0  0  0  0  0  0  0  0  0
   -3.9476    1.4682  -20.2637 C   0  0  0  0  0  0  0  0  0  0  0  0
   -4.6015    0.2692  -19.6433 C   0  0  0  0  0  0  0  0  0  0  0  0
   -4.7415   -1.0000  -20.4304 C   0  0  0  0  0  0  0  0  0  0  0  0
   -5.3953   -2.1990  -19.8100 C   0  0  0  0  0  0  0  0  0  0  0  0
   -5.9093   -2.1287  -18.4025 N   0  0  0  0  0  0  0  0  0  0  0  0
   -5.7693   -0.8595  -17.6154 N   0  0  0  0  0  0  0  0  0  0  0  0
   -5.1154    0.3395  -18.2359 C   0  0  0  0  0  0  0  0  0  0  0  0
   -6.8082    4.0041  -25.2144 C   0  0  0  0  0  0  0  0  0  0  0  0
   -7.6433    5.2466  -25.1211 N   0  0  0  0  0  0  0  0  0  0  0  0
   -7.2219    6.1312  -25.2162 H   0  0  0  0  0  0  0  0  0  0  0  0
   -9.1205    5.1414  -24.8830 C   0  0  0  0  0  0  0  0  0  0  0  0
  -10.1463    4.7033  -25.8859 N   0  0  0  0  0  0  0  0  0  0  0  0
  -11.4911    4.7470  -25.2228 N   0  0  0  0  0  0  0  0  0  0  0  0
  -11.2964    5.2120  -23.8101 C   0  0  0  0  0  0  0  0  0  0  0  0
   -9.8314    5.4558  -23.6000 S   0  0  0  0  0  0  0  0  0  0  0  0
  1  2  2  0  0  0
  2  3  1  0  0  0
  3  4  2  0  0  0
  4  5  1  0  0  0
  5  6  2  0  0  0
  6  7  1  0  0  0
  6  8  1  0  0  0
  8  9  2  0  0  0
  9 10  1  0  0  0
 10 11  1  0  0  0
 11 12  1  0  0  0
 12 28  1  0  0  0
 28 29  1  0  0  0
 29 30  2  0  0  0
 30 31  1  0  0  0
 31 32  2  0  0  0
 32 33  1  0  0  0
 33 34  2  0  0  0
 10 13  1  0  0  0
 13 14  2  0  0  0
 13 15  1  0  0  0
 15 18  1  0  0  0
 18 19  2  0  0  0
 19 20  1  0  0  0
 20 21  2  0  0  0
 21 22  1  0  0  0
 22 23  2  0  0  0
 23 24  1  0  0  0
 24 25  2  0  0  0
 25 26  1  0  0  0
 26 27  2  0  0  0
 15 16  1  0  0  0
 16 17  1  0  0  0
 17 35  1  0  0  0
 35 36  1  0  0  0
 36 38  1  0  0  0
 38 39  2  0  0  0
 39 40  1  0  0  0
 40 41  2  0  0  0
 41 42  1  0  0  0
 12  2  1  0  0  0
 34 29  1  0  0  0
 27 18  1  0  0  0
 42 38  1  0  0  0
  9  3  1  0  0  0
 17 10  1  0  0  0
 27 22  1  0  0  0
 36 37  1  0  0  0
M  END
> <minimizedAffinity>
-8.28188

> <CNNscore>
0.2780080140

> <CNNaffinity>
6.4723496437

> <CNN_VS>
1.7993650436

> <CNNaffinity_variance>
0.2708956003

$$$$



 42 48  0  0  0  0  0  0  0  0999 V2000
  -13.1056    0.7474  -23.7234 O   0  0  0  0  0  0  0  0  0  0  0  0
  -11.6132    0.8609  -23.6243 C   0  0  0  0  0  0  0  0  0  0  0  0
  -10.7694   -0.3777  -23.5607 C   0  0  0  0  0  0  0  0  0  0  0  0
  -11.4181   -1.7297  -23.5962 C   0  0  0  0  0  0  0  0  0  0  0  0
  -10.5743   -2.9682  -23.5326 C   0  0  0  0  0  0  0  0  0  0  0  0
   -9.0819   -2.8547  -23.4335 C   0  0  0  0  0  0  0  0  0  0  0  0
   -8.5623   -4.2613  -23.3906 Cl  0  0  0  0  0  0  0  0  0  0  0  0
   -8.4332   -1.5027  -23.3980 C   0  0  0  0  0  0  0  0  0  0  0  0
   -9.2770   -0.2642  -23.4616 C   0  0  0  0  0  0  0  0  0  0  0  0
   -8.6284    1.0879  -23.4261 C   0  0  0  0  0  0  0  0  0  0  0  0
   -9.4721    2.3264  -23.4897 C   0  0  0  0  0  0  0  0  0  0  0  0
  -10.9646    2.2129  -23.5888 N   0  0  0  0  0  0  0  0  0  0  0  0
   -7.8423    2.3646  -23.3810 C   0  0  0  0  0  0  0  0  0  0  0  0
   -8.4106    3.7520  -23.4271 O   0  0  0  0  0  0  0  0  0  0  0  0
   -6.3881    2.0104  -23.2818 N   0  0  0  0  0  0  0  0  0  0  0  0
   -6.2754    0.5147  -23.2655 C   0  0  0  0  0  0  0  0  0  0  0  0
   -7.6600   -0.0554  -23.3548 C   0  0  0  0  0  0  0  0  0  0  0  0
   -5.2469    2.9814  -23.2111 C   0  0  0  0  0  0  0  0  0  0  0  0
   -5.1093    4.0538  -24.2507 C   0  0  0  0  0  0  0  0  0  0  0  0
   -3.9681    5.0247  -24.1801 N   0  0  0  0  0  0  0  0  0  0  0  0
   -2.9647    4.9232  -23.0698 C   0  0  0  0  0  0  0  0  0  0  0  0
   -3.1024    3.8508  -22.0301 C   0  0  0  0  0  0  0  0  0  0  0  0
   -2.0988    3.7493  -20.9198 C   0  0  0  0  0  0  0  0  0  0  0  0
   -2.2366    2.6768  -19.8802 C   0  0  0  0  0  0  0  0  0  0  0  0
   -3.3777    1.7059  -19.9509 C   0  0  0  0  0  0  0  0  0  0  0  0
   -4.3812    1.8074  -21.0612 C   0  0  0  0  0  0  0  0  0  0  0  0
   -4.2435    2.8798  -22.1008 C   0  0  0  0  0  0  0  0  0  0  0  0
  -11.8083    3.4515  -23.6524 C   0  0  0  0  0  0  0  0  0  0  0  0
  -11.9790    4.1767  -24.9543 C   0  0  0  0  0  0  0  0  0  0  0  0
  -13.2832    4.8445  -25.2755 C   0  0  0  0  0  0  0  0  0  0  0  0
  -13.4539    5.5697  -26.5774 C   0  0  0  0  0  0  0  0  0  0  0  0
  -12.3204    5.6271  -27.5582 N   0  0  0  0  0  0  0  0  0  0  0  0
  -11.0162    4.9593  -27.2370 N   0  0  0  0  0  0  0  0  0  0  0  0
  -10.8455    4.2341  -25.9350 C   0  0  0  0  0  0  0  0  0  0  0  0
   -8.0140   -1.5129  -23.3699 C   0  0  0  0  0  0  0  0  0  0  0  0
   -7.4878   -2.4239  -22.3007 N   0  0  0  0  0  0  0  0  0  0  0  0
   -7.4493   -3.3952  -22.4566 H   0  0  0  0  0  0  0  0  0  0  0  0
   -7.0203   -1.8550  -20.9939 C   0  0  0  0  0  0  0  0  0  0  0  0
   -7.8615   -1.0947  -20.0119 N   0  0  0  0  0  0  0  0  0  0  0  0
   -6.9906   -0.7164  -18.8507 N   0  0  0  0  0  0  0  0  0  0  0  0
   -5.6111   -1.2428  -19.1150 C   0  0  0  0  0  0  0  0  0  0  0  0
   -5.6294   -1.9465  -20.4396 S   0  0  0  0  0  0  0  0  0  0  0  0
  1  2  2  0  0  0
  2  3  1  0  0  0
  3  4  2  0  0  0
  4  5  1  0  0  0
  5  6  2  0  0  0
  6  7  1  0  0  0
  6  8  1  0  0  0
  8  9  2  0  0  0
  9 10  1  0  0  0
 10 11  1  0  0  0
 11 12  1  0  0  0
 12 28  1  0  0  0
 28 29  1  0  0  0
 29 30  2  0  0  0
 30 31  1  0  0  0
 31 32  2  0  0  0
 32 33  1  0  0  0
 33 34  2  0  0  0
 10 13  1  0  0  0
 13 14  2  0  0  0
 13 15  1  0  0  0
 15 18  1  0  0  0
 18 19  2  0  0  0
 19 20  1  0  0  0
 20 21  2  0  0  0
 21 22  1  0  0  0
 22 23  2  0  0  0
 23 24  1  0  0  0
 24 25  2  0  0  0
 25 26  1  0  0  0
 26 27  2  0  0  0
 15 16  1  0  0  0
 16 17  1  0  0  0
 17 35  1  0  0  0
 35 36  1  0  0  0
 36 38  1  0  0  0
 38 39  2  0  0  0
 39 40  1  0  0  0
 40 41  2  0  0  0
 41 42  1  0  0  0
 12  2  1  0  0  0
 34 29  1  0  0  0
 27 18  1  0  0  0
 42 38  1  0  0  0
  9  3  1  0  0  0
 17 10  1  0  0  0
 27 22  1  0  0  0
 36 37  1  0  0  0
M  END
> <minimizedAffinity>
-8.33802

> <CNNscore>
0.2772997320

> <CNNaffinity>
6.7724585533

> <CNN_VS>
1.8780009747

> <CNNaffinity_variance>
0.1042993292

$$$$



 42 48  0  0  0  0  0  0  0  0999 V2000
   -2.2356    1.8181  -22.3501 O   0  0  0  0  0  0  0  0  0  0  0  0
   -3.6208    1.7815  -22.9245 C   0  0  0  0  0  0  0  0  0  0  0  0
   -3.8227    1.9172  -24.4047 C   0  0  0  0  0  0  0  0  0  0  0  0
   -2.6395    2.0896  -25.3104 C   0  0  0  0  0  0  0  0  0  0  0  0
   -2.8415    2.2253  -26.7905 C   0  0  0  0  0  0  0  0  0  0  0  0
   -4.2267    2.1887  -27.3649 C   0  0  0  0  0  0  0  0  0  0  0  0
   -4.0638    2.3497  -28.8474 Cl  0  0  0  0  0  0  0  0  0  0  0  0
   -5.4099    2.0164  -26.4592 C   0  0  0  0  0  0  0  0  0  0  0  0
   -5.2079    1.8807  -24.9791 C   0  0  0  0  0  0  0  0  0  0  0  0
   -6.3912    1.7083  -24.0734 C   0  0  0  0  0  0  0  0  0  0  0  0
   -6.1892    1.5726  -22.5933 C   0  0  0  0  0  0  0  0  0  0  0  0
   -4.8040    1.6091  -22.0188 N   0  0  0  0  0  0  0  0  0  0  0  0
   -7.6637    1.5429  -23.2967 C   0  0  0  0  0  0  0  0  0  0  0  0
   -7.7745    1.3851  -21.8091 O   0  0  0  0  0  0  0  0  0  0  0  0
   -8.8060    1.5631  -24.2686 N   0  0  0  0  0  0  0  0  0  0  0  0
   -8.2395    1.7410  -25.6461 C   0  0  0  0  0  0  0  0  0  0  0  0
   -6.7470    1.8307  -25.5254 C   0  0  0  0  0  0  0  0  0  0  0  0
  -10.2596    1.4290  -23.9236 C   0  0  0  0  0  0  0  0  0  0  0  0
  -10.8564    0.0703  -23.7056 C   0  0  0  0  0  0  0  0  0  0  0  0
  -12.3100   -0.0639  -23.3607 N   0  0  0  0  0  0  0  0  0  0  0  0
  -13.1668    1.1608  -23.2337 C   0  0  0  0  0  0  0  0  0  0  0  0
  -12.5700    2.5195  -23.4518 C   0  0  0  0  0  0  0  0  0  0  0  0
  -13.4268    3.7442  -23.3248 C   0  0  0  0  0  0  0  0  0  0  0  0
  -12.8299    5.1030  -23.5429 C   0  0  0  0  0  0  0  0  0  0  0  0
  -11.3764    5.2370  -23.8879 C   0  0  0  0  0  0  0  0  0  0  0  0
  -10.5196    4.0124  -24.0148 C   0  0  0  0  0  0  0  0  0  0  0  0
  -11.1164    2.6537  -23.7967 C   0  0  0  0  0  0  0  0  0  0  0  0
   -4.6021    1.4734  -20.5387 C   0  0  0  0  0  0  0  0  0  0  0  0
   -4.9968    0.2056  -19.8410 C   0  0  0  0  0  0  0  0  0  0  0  0
   -5.0597   -1.0832  -20.6061 C   0  0  0  0  0  0  0  0  0  0  0  0
   -5.4544   -2.3510  -19.9084 C   0  0  0  0  0  0  0  0  0  0  0  0
   -5.7863   -2.3302  -18.4457 N   0  0  0  0  0  0  0  0  0  0  0  0
   -5.7235   -1.0414  -17.6807 N   0  0  0  0  0  0  0  0  0  0  0  0
   -5.3287    0.2264  -18.3784 C   0  0  0  0  0  0  0  0  0  0  0  0
   -5.7802    2.0112  -26.6579 C   0  0  0  0  0  0  0  0  0  0  0  0
   -5.4650    0.8596  -27.5659 N   0  0  0  0  0  0  0  0  0  0  0  0
   -4.6074    0.8338  -28.0487 H   0  0  0  0  0  0  0  0  0  0  0  0
   -6.4564   -0.2527  -27.7384 C   0  0  0  0  0  0  0  0  0  0  0  0
   -7.6493   -0.2376  -28.6477 N   0  0  0  0  0  0  0  0  0  0  0  0
   -8.3591   -1.5510  -28.5031 N   0  0  0  0  0  0  0  0  0  0  0  0
   -7.6050   -2.3780  -27.5044 C   0  0  0  0  0  0  0  0  0  0  0  0
   -6.4290   -1.5757  -27.0318 S   0  0  0  0  0  0  0  0  0  0  0  0
  1  2  2  0  0  0
  2  3  1  0  0  0
  3  4  2  0  0  0
  4  5  1  0  0  0
  5  6  2  0  0  0
  6  7  1  0  0  0
  6  8  1  0  0  0
  8  9  2  0  0  0
  9 10  1  0  0  0
 10 11  1  0  0  0
 11 12  1  0  0  0
 12 28  1  0  0  0
 28 29  1  0  0  0
 29 30  2  0  0  0
 30 31  1  0  0  0
 31 32  2  0  0  0
 32 33  1  0  0  0
 33 34  2  0  0  0
 10 13  1  0  0  0
 13 14  2  0  0  0
 13 15  1  0  0  0
 15 18  1  0  0  0
 18 19  2  0  0  0
 19 20  1  0  0  0
 20 21  2  0  0  0
 21 22  1  0  0  0
 22 23  2  0  0  0
 23 24  1  0  0  0
 24 25  2  0  0  0
 25 26  1  0  0  0
 26 27  2  0  0  0
 15 16  1  0  0  0
 16 17  1  0  0  0
 17 35  1  0  0  0
 35 36  1  0  0  0
 36 38  1  0  0  0
 38 39  2  0  0  0
 39 40  1  0  0  0
 40 41  2  0  0  0
 41 42  1  0  0  0
 12  2  1  0  0  0
 34 29  1  0  0  0
 27 18  1  0  0  0
 42 38  1  0  0  0
  9  3  1  0  0  0
 17 10  1  0  0  0
 27 22  1  0  0  0
 36 37  1  0  0  0
M  END
> <minimizedAffinity>
-7.89014

> <CNNscore>
0.2693093419

> <CNNaffinity>
6.2404623032

> <CNN_VS>
1.6806148291

> <CNNaffinity_variance>
0.5926306248

$$$$
