


 34 39  0  0  0  0  0  0  0  0999 V2000
   11.2169   -1.5348   25.0647 C   0  0  0  0  0  0  0  0  0  0  0  0
   10.4982   -0.5248   24.2200 C   0  0  0  0  0  0  0  0  0  0  0  0
   11.2692    0.7561   24.0979 C   0  0  0  0  0  0  0  0  0  0  0  0
   10.4741    1.6957   23.2407 N   0  0  0  0  0  0  0  0  0  0  0  0
    9.2117    0.9956   22.8331 C   0  0  0  0  0  0  0  0  0  0  0  0
    8.1252    1.5674   21.9714 O   0  0  0  0  0  0  0  0  0  0  0  0
    9.2266   -0.3768   23.4383 C   0  0  0  0  0  0  0  0  0  0  0  0
    8.0035   -0.0838   22.6209 C   0  0  0  0  0  0  0  0  0  0  0  0
    6.9345   -1.1253   22.4708 N   0  0  0  0  0  0  0  0  0  0  0  0
    7.0886   -2.4598   23.1381 C   0  0  0  0  0  0  0  0  0  0  0  0
    6.0196   -3.5013   22.9880 O   0  0  0  0  0  0  0  0  0  0  0  0
    8.3117   -2.7528   23.9556 C   0  0  0  0  0  0  0  0  0  0  0  0
    8.4658   -4.0873   24.6229 C   0  0  0  0  0  0  0  0  0  0  0  0
    9.6889   -4.3803   25.4403 C   0  0  0  0  0  0  0  0  0  0  0  0
   10.7579   -3.3389   25.5904 C   0  0  0  0  0  0  0  0  0  0  0  0
   11.9810   -3.6319   26.4078 F   0  0  0  0  0  0  0  0  0  0  0  0
   10.6038   -2.0044   24.9231 C   0  0  0  0  0  0  0  0  0  0  0  0
    9.3807   -1.7114   24.1057 C   0  0  0  0  0  0  0  0  0  0  0  0
   10.8716    3.0906   22.8582 C   0  0  0  0  0  0  0  0  0  0  0  0
   12.2236    3.3485   22.2622 C   0  0  0  0  0  0  0  0  0  0  0  0
   12.6210    4.7434   21.8797 N   0  0  0  0  0  0  0  0  0  0  0  0
   11.6664    5.8804   22.0934 C   0  0  0  0  0  0  0  0  0  0  0  0
   10.3143    5.6226   22.6895 C   0  0  0  0  0  0  0  0  0  0  0  0
    9.3596    6.7597   22.9032 C   0  0  0  0  0  0  0  0  0  0  0  0
    8.0075    6.5018   23.4993 C   0  0  0  0  0  0  0  0  0  0  0  0
    7.6101    5.1069   23.8817 C   0  0  0  0  0  0  0  0  0  0  0  0
    8.5648    3.9699   23.6680 C   0  0  0  0  0  0  0  0  0  0  0  0
    9.9168    4.2277   23.0720 C   0  0  0  0  0  0  0  0  0  0  0  0
    5.7114   -0.8322   21.6534 C   0  0  0  0  0  0  0  0  0  0  0  0
    5.8518   -0.3419   20.2428 C   0  0  0  0  0  0  0  0  0  0  0  0
    4.7859    0.3378   19.4354 C   0  0  0  0  0  0  0  0  0  0  0  0
    5.3581    0.6547   18.0856 C   0  0  0  0  0  0  0  0  0  0  0  0
    6.7777    0.1708   18.0586 O   0  0  0  0  0  0  0  0  0  0  0  0
    7.0828   -0.4451   19.3919 N   0  0  0  0  0  0  0  0  0  0  0  0
  2  1  1  0  0  0
  2  3  1  0  0  0
  3  4  1  0  0  0
  4 19  1  0  0  0
 19 20  2  0  0  0
 20 21  1  0  0  0
 21 22  2  0  0  0
 22 23  1  0  0  0
 23 24  2  0  0  0
 24 25  1  0  0  0
 25 26  2  0  0  0
 26 27  1  0  0  0
 27 28  2  0  0  0
  4  5  1  0  0  0
  5  6  2  0  0  0
  5  7  1  0  0  0
  7  8  1  0  0  0
  8  9  1  0  0  0
  9 29  1  0  0  0
 29 30  1  0  0  0
 30 31  1  0  0  0
 31 32  2  0  0  0
 32 33  1  0  0  0
 33 34  1  0  0  0
  9 10  1  0  0  0
 10 11  2  0  0  0
 10 12  1  0  0  0
 12 13  2  0  0  0
 13 14  1  0  0  0
 14 15  2  0  0  0
 15 16  1  0  0  0
 15 17  1  0  0  0
 17 18  2  0  0  0
  7  2  1  0  0  0
 34 30  2  0  0  0
 18 12  1  0  0  0
 28 19  1  0  0  0
 18  7  1  0  0  0
 28 23  1  0  0  0
M  END
> <minimizedAffinity>
-9.17299

> <CNNscore>
0.5378246307

> <CNNaffinity>
6.9015626907

> <CNN_VS>
3.7118303776

> <CNNaffinity_variance>
0.1567859650

$$$$



 34 39  0  0  0  0  0  0  0  0999 V2000
    7.4700   -3.2727   23.5085 C   0  0  0  0  0  0  0  0  0  0  0  0
    7.6705   -2.0050   22.7321 C   0  0  0  0  0  0  0  0  0  0  0  0
    6.5557   -1.7601   21.7588 C   0  0  0  0  0  0  0  0  0  0  0  0
    6.8451   -0.4782   21.0355 N   0  0  0  0  0  0  0  0  0  0  0  0
    8.1387    0.0690   21.5619 C   0  0  0  0  0  0  0  0  0  0  0  0
    8.8052    1.3373   21.1176 O   0  0  0  0  0  0  0  0  0  0  0  0
    8.6489   -0.8746   22.6104 C   0  0  0  0  0  0  0  0  0  0  0  0
    9.5326    0.3150   22.3783 C   0  0  0  0  0  0  0  0  0  0  0  0
   10.7987    0.4739   23.1666 N   0  0  0  0  0  0  0  0  0  0  0  0
   11.1812   -0.5567   24.1872 C   0  0  0  0  0  0  0  0  0  0  0  0
   12.4474   -0.3978   24.9755 O   0  0  0  0  0  0  0  0  0  0  0  0
   10.2975   -1.7464   24.4193 C   0  0  0  0  0  0  0  0  0  0  0  0
   10.6799   -2.7770   25.4398 C   0  0  0  0  0  0  0  0  0  0  0  0
    9.7962   -3.9665   25.6720 C   0  0  0  0  0  0  0  0  0  0  0  0
    8.5300   -4.1255   24.8836 C   0  0  0  0  0  0  0  0  0  0  0  0
    7.6463   -5.3151   25.1157 F   0  0  0  0  0  0  0  0  0  0  0  0
    8.1476   -3.0949   23.8631 C   0  0  0  0  0  0  0  0  0  0  0  0
    9.0313   -1.9053   23.6309 C   0  0  0  0  0  0  0  0  0  0  0  0
    5.9909    0.1467   19.9726 C   0  0  0  0  0  0  0  0  0  0  0  0
    6.3795    0.0229   18.5292 C   0  0  0  0  0  0  0  0  0  0  0  0
    5.5252    0.6478   17.4663 N   0  0  0  0  0  0  0  0  0  0  0  0
    4.2824    1.3965   17.8469 C   0  0  0  0  0  0  0  0  0  0  0  0
    3.8938    1.5203   19.2904 C   0  0  0  0  0  0  0  0  0  0  0  0
    2.6510    2.2690   19.6710 C   0  0  0  0  0  0  0  0  0  0  0  0
    2.2625    2.3927   21.1145 C   0  0  0  0  0  0  0  0  0  0  0  0
    3.1167    1.7678   22.1773 C   0  0  0  0  0  0  0  0  0  0  0  0
    4.3595    1.0191   21.7967 C   0  0  0  0  0  0  0  0  0  0  0  0
    4.7481    0.8954   20.3533 C   0  0  0  0  0  0  0  0  0  0  0  0
   11.6825    1.6636   22.9345 C   0  0  0  0  0  0  0  0  0  0  0  0
   11.1030    3.0466   22.9698 C   0  0  0  0  0  0  0  0  0  0  0  0
   11.8802    4.3292   22.9415 C   0  0  0  0  0  0  0  0  0  0  0  0
   10.9021    5.4652   22.9938 C   0  0  0  0  0  0  0  0  0  0  0  0
    9.5203    4.8847   23.0544 O   0  0  0  0  0  0  0  0  0  0  0  0
    9.6444    3.3900   23.0396 N   0  0  0  0  0  0  0  0  0  0  0  0
  2  1  1  0  0  0
  2  3  1  0  0  0
  3  4  1  0  0  0
  4 19  1  0  0  0
 19 20  2  0  0  0
 20 21  1  0  0  0
 21 22  2  0  0  0
 22 23  1  0  0  0
 23 24  2  0  0  0
 24 25  1  0  0  0
 25 26  2  0  0  0
 26 27  1  0  0  0
 27 28  2  0  0  0
  4  5  1  0  0  0
  5  6  2  0  0  0
  5  7  1  0  0  0
  7  8  1  0  0  0
  8  9  1  0  0  0
  9 29  1  0  0  0
 29 30  1  0  0  0
 30 31  1  0  0  0
 31 32  2  0  0  0
 32 33  1  0  0  0
 33 34  1  0  0  0
  9 10  1  0  0  0
 10 11  2  0  0  0
 10 12  1  0  0  0
 12 13  2  0  0  0
 13 14  1  0  0  0
 14 15  2  0  0  0
 15 16  1  0  0  0
 15 17  1  0  0  0
 17 18  2  0  0  0
  7  2  1  0  0  0
 34 30  2  0  0  0
 18 12  1  0  0  0
 28 19  1  0  0  0
 18  7  1  0  0  0
 28 23  1  0  0  0
M  END
> <minimizedAffinity>
-9.67861

> <CNNscore>
0.5349931717

> <CNNaffinity>
6.6267099380

> <CNN_VS>
3.5452444553

> <CNNaffinity_variance>
0.0998878330

$$$$



 34 39  0  0  0  0  0  0  0  0999 V2000
   11.1103   -2.6483   24.5204 C   0  0  0  0  0  0  0  0  0  0  0  0
    9.6319   -2.6668   24.2671 C   0  0  0  0  0  0  0  0  0  0  0  0
    8.9814   -3.8970   24.8269 C   0  0  0  0  0  0  0  0  0  0  0  0
    7.5139   -3.8235   24.5250 N   0  0  0  0  0  0  0  0  0  0  0  0
    7.2575   -2.5479   23.7787 C   0  0  0  0  0  0  0  0  0  0  0  0
    5.9259   -2.0709   23.2794 O   0  0  0  0  0  0  0  0  0  0  0  0
    8.5665   -1.8330   23.6193 C   0  0  0  0  0  0  0  0  0  0  0  0
    7.3993   -1.1106   23.0145 C   0  0  0  0  0  0  0  0  0  0  0  0
    7.6065    0.2068   22.3279 N   0  0  0  0  0  0  0  0  0  0  0  0
    8.9810    0.8018   22.2460 C   0  0  0  0  0  0  0  0  0  0  0  0
    9.1882    2.1193   21.5593 O   0  0  0  0  0  0  0  0  0  0  0  0
   10.1483    0.0795   22.8507 C   0  0  0  0  0  0  0  0  0  0  0  0
   11.5227    0.6746   22.7688 C   0  0  0  0  0  0  0  0  0  0  0  0
   12.6900   -0.0478   23.3736 C   0  0  0  0  0  0  0  0  0  0  0  0
   12.4827   -1.3652   24.0602 C   0  0  0  0  0  0  0  0  0  0  0  0
   13.6500   -2.0876   24.6650 F   0  0  0  0  0  0  0  0  0  0  0  0
   11.1083   -1.9603   24.1421 C   0  0  0  0  0  0  0  0  0  0  0  0
    9.9411   -1.2379   23.5374 C   0  0  0  0  0  0  0  0  0  0  0  0
    6.4837   -4.8461   24.9031 C   0  0  0  0  0  0  0  0  0  0  0  0
    6.4176   -6.1516   24.1675 C   0  0  0  0  0  0  0  0  0  0  0  0
    5.3873   -7.1742   24.5455 N   0  0  0  0  0  0  0  0  0  0  0  0
    4.4232   -6.8912   25.6592 C   0  0  0  0  0  0  0  0  0  0  0  0
    4.4893   -5.5856   26.3948 C   0  0  0  0  0  0  0  0  0  0  0  0
    3.5251   -5.3026   27.5086 C   0  0  0  0  0  0  0  0  0  0  0  0
    3.5913   -3.9971   28.2442 C   0  0  0  0  0  0  0  0  0  0  0  0
    4.6215   -2.9746   27.8661 C   0  0  0  0  0  0  0  0  0  0  0  0
    5.5856   -3.2576   26.7524 C   0  0  0  0  0  0  0  0  0  0  0  0
    5.5195   -4.5630   26.0168 C   0  0  0  0  0  0  0  0  0  0  0  0
    6.4392    0.9291   21.7231 C   0  0  0  0  0  0  0  0  0  0  0  0
    6.1068    0.7356   20.2733 C   0  0  0  0  0  0  0  0  0  0  0  0
    4.7871    1.0309   19.6243 C   0  0  0  0  0  0  0  0  0  0  0  0
    4.9004    0.6906   18.1678 C   0  0  0  0  0  0  0  0  0  0  0  0
    6.2901    0.1849   17.9166 O   0  0  0  0  0  0  0  0  0  0  0  0
    7.0357    0.2127   19.2179 N   0  0  0  0  0  0  0  0  0  0  0  0
  2  1  1  0  0  0
  2  3  1  0  0  0
  3  4  1  0  0  0
  4 19  1  0  0  0
 19 20  2  0  0  0
 20 21  1  0  0  0
 21 22  2  0  0  0
 22 23  1  0  0  0
 23 24  2  0  0  0
 24 25  1  0  0  0
 25 26  2  0  0  0
 26 27  1  0  0  0
 27 28  2  0  0  0
  4  5  1  0  0  0
  5  6  2  0  0  0
  5  7  1  0  0  0
  7  8  1  0  0  0
  8  9  1  0  0  0
  9 29  1  0  0  0
 29 30  1  0  0  0
 30 31  1  0  0  0
 31 32  2  0  0  0
 32 33  1  0  0  0
 33 34  1  0  0  0
  9 10  1  0  0  0
 10 11  2  0  0  0
 10 12  1  0  0  0
 12 13  2  0  0  0
 13 14  1  0  0  0
 14 15  2  0  0  0
 15 16  1  0  0  0
 15 17  1  0  0  0
 17 18  2  0  0  0
  7  2  1  0  0  0
 34 30  2  0  0  0
 18 12  1  0  0  0
 28 19  1  0  0  0
 18  7  1  0  0  0
 28 23  1  0  0  0
M  END
> <minimizedAffinity>
-9.17964

> <CNNscore>
0.5328472257

> <CNNaffinity>
6.7706084251

> <CNN_VS>
3.6076998711

> <CNNaffinity_variance>
0.1045165509

$$$$



 34 39  0  0  0  0  0  0  0  0999 V2000
   11.0035   -3.3802   26.1048 C   0  0  0  0  0  0  0  0  0  0  0  0
    9.6248   -2.8980   25.7627 C   0  0  0  0  0  0  0  0  0  0  0  0
    8.5609   -3.7968   26.3196 C   0  0  0  0  0  0  0  0  0  0  0  0
    7.2269   -3.2347   25.9268 N   0  0  0  0  0  0  0  0  0  0  0  0
    7.4663   -1.9884   25.1271 C   0  0  0  0  0  0  0  0  0  0  0  0
    6.4093   -1.1053   24.5332 O   0  0  0  0  0  0  0  0  0  0  0  0
    8.9483   -1.7803   25.0257 C   0  0  0  0  0  0  0  0  0  0  0  0
    8.1357   -0.7296   24.3289 C   0  0  0  0  0  0  0  0  0  0  0  0
    8.8209    0.3981   23.6157 N   0  0  0  0  0  0  0  0  0  0  0  0
   10.3188    0.4752   23.5992 C   0  0  0  0  0  0  0  0  0  0  0  0
   11.0040    1.6029   22.8860 O   0  0  0  0  0  0  0  0  0  0  0  0
   11.1315   -0.5756   24.2960 C   0  0  0  0  0  0  0  0  0  0  0  0
   12.6294   -0.4985   24.2796 C   0  0  0  0  0  0  0  0  0  0  0  0
   13.4421   -1.5492   24.9763 C   0  0  0  0  0  0  0  0  0  0  0  0
   12.7569   -2.6770   25.6895 C   0  0  0  0  0  0  0  0  0  0  0  0
   13.5697   -3.7277   26.3863 F   0  0  0  0  0  0  0  0  0  0  0  0
   11.2590   -2.7540   25.7060 C   0  0  0  0  0  0  0  0  0  0  0  0
   10.4463   -1.7033   25.0092 C   0  0  0  0  0  0  0  0  0  0  0  0
    5.8884   -3.8166   26.2730 C   0  0  0  0  0  0  0  0  0  0  0  0
    5.1238   -4.6007   25.2481 C   0  0  0  0  0  0  0  0  0  0  0  0
    3.7853   -5.1826   25.5942 N   0  0  0  0  0  0  0  0  0  0  0  0
    3.2115   -4.9803   26.9653 C   0  0  0  0  0  0  0  0  0  0  0  0
    3.9761   -4.1962   27.9902 C   0  0  0  0  0  0  0  0  0  0  0  0
    3.4022   -3.9940   29.3613 C   0  0  0  0  0  0  0  0  0  0  0  0
    4.1670   -3.2098   30.3862 C   0  0  0  0  0  0  0  0  0  0  0  0
    5.5054   -2.6280   30.0400 C   0  0  0  0  0  0  0  0  0  0  0  0
    6.0792   -2.8302   28.6689 C   0  0  0  0  0  0  0  0  0  0  0  0
    5.3146   -3.6143   27.6441 C   0  0  0  0  0  0  0  0  0  0  0  0
    8.0081    1.4489   22.9189 C   0  0  0  0  0  0  0  0  0  0  0  0
    7.6361    2.7102   23.6403 C   0  0  0  0  0  0  0  0  0  0  0  0
    6.8161    2.8003   24.8931 C   0  0  0  0  0  0  0  0  0  0  0  0
    6.6920    4.2488   25.2627 C   0  0  0  0  0  0  0  0  0  0  0  0
    7.4354    5.0539   24.2383 O   0  0  0  0  0  0  0  0  0  0  0  0
    8.0188    4.1030   23.2357 N   0  0  0  0  0  0  0  0  0  0  0  0
  2  1  1  0  0  0
  2  3  1  0  0  0
  3  4  1  0  0  0
  4 19  1  0  0  0
 19 20  2  0  0  0
 20 21  1  0  0  0
 21 22  2  0  0  0
 22 23  1  0  0  0
 23 24  2  0  0  0
 24 25  1  0  0  0
 25 26  2  0  0  0
 26 27  1  0  0  0
 27 28  2  0  0  0
  4  5  1  0  0  0
  5  6  2  0  0  0
  5  7  1  0  0  0
  7  8  1  0  0  0
  8  9  1  0  0  0
  9 29  1  0  0  0
 29 30  1  0  0  0
 30 31  1  0  0  0
 31 32  2  0  0  0
 32 33  1  0  0  0
 33 34  1  0  0  0
  9 10  1  0  0  0
 10 11  2  0  0  0
 10 12  1  0  0  0
 12 13  2  0  0  0
 13 14  1  0  0  0
 14 15  2  0  0  0
 15 16  1  0  0  0
 15 17  1  0  0  0
 17 18  2  0  0  0
  7  2  1  0  0  0
 34 30  2  0  0  0
 18 12  1  0  0  0
 28 19  1  0  0  0
 18  7  1  0  0  0
 28 23  1  0  0  0
M  END
> <minimizedAffinity>
-7.92892

> <CNNscore>
0.4805411994

> <CNNaffinity>
6.6115446091

> <CNN_VS>
3.1771194935

> <CNNaffinity_variance>
0.1900003105

$$$$



 34 39  0  0  0  0  0  0  0  0999 V2000
    5.7305   -0.9759   26.6412 C   0  0  0  0  0  0  0  0  0  0  0  0
    6.4998   -0.4327   25.4736 C   0  0  0  0  0  0  0  0  0  0  0  0
    7.9706   -0.7007   25.5961 C   0  0  0  0  0  0  0  0  0  0  0  0
    8.6490   -0.1233   24.3892 N   0  0  0  0  0  0  0  0  0  0  0  0
    7.5975    0.5016   23.5210 C   0  0  0  0  0  0  0  0  0  0  0  0
    7.8329    1.1957   22.2123 O   0  0  0  0  0  0  0  0  0  0  0  0
    6.2692    0.3104   24.1911 C   0  0  0  0  0  0  0  0  0  0  0  0
    6.1937    1.0451   22.8856 C   0  0  0  0  0  0  0  0  0  0  0  0
    4.8676    1.5145   22.3647 N   0  0  0  0  0  0  0  0  0  0  0  0
    3.6171    1.2492   23.1494 C   0  0  0  0  0  0  0  0  0  0  0  0
    2.2911    1.7186   22.6285 O   0  0  0  0  0  0  0  0  0  0  0  0
    3.6926    0.5144   24.4550 C   0  0  0  0  0  0  0  0  0  0  0  0
    2.4420    0.2491   25.2397 C   0  0  0  0  0  0  0  0  0  0  0  0
    2.5176   -0.4856   26.5452 C   0  0  0  0  0  0  0  0  0  0  0  0
    3.8436   -0.9550   27.0660 C   0  0  0  0  0  0  0  0  0  0  0  0
    3.9191   -1.6898   28.3716 F   0  0  0  0  0  0  0  0  0  0  0  0
    5.0941   -0.6897   26.2814 C   0  0  0  0  0  0  0  0  0  0  0  0
    5.0186    0.0450   24.9759 C   0  0  0  0  0  0  0  0  0  0  0  0
   10.1205   -0.1636   24.1013 C   0  0  0  0  0  0  0  0  0  0  0  0
   10.7162    0.7868   23.1054 C   0  0  0  0  0  0  0  0  0  0  0  0
   12.1877    0.7464   22.8174 N   0  0  0  0  0  0  0  0  0  0  0  0
   13.0635   -0.2444   23.5254 C   0  0  0  0  0  0  0  0  0  0  0  0
   12.4678   -1.1949   24.5213 C   0  0  0  0  0  0  0  0  0  0  0  0
   13.3437   -2.1858   25.2292 C   0  0  0  0  0  0  0  0  0  0  0  0
   12.7479   -3.1362   26.2251 C   0  0  0  0  0  0  0  0  0  0  0  0
   11.2765   -3.0958   26.5130 C   0  0  0  0  0  0  0  0  0  0  0  0
   10.4006   -2.1049   25.8051 C   0  0  0  0  0  0  0  0  0  0  0  0
   10.9963   -1.1545   24.8092 C   0  0  0  0  0  0  0  0  0  0  0  0
    4.7922    2.2492   21.0591 C   0  0  0  0  0  0  0  0  0  0  0  0
    5.1085    1.5363   19.7779 C   0  0  0  0  0  0  0  0  0  0  0  0
    4.2081    1.4292   18.5830 C   0  0  0  0  0  0  0  0  0  0  0  0
    4.9238    0.6320   17.5332 C   0  0  0  0  0  0  0  0  0  0  0  0
    6.2666    0.2462   18.0793 O   0  0  0  0  0  0  0  0  0  0  0  0
    6.3807    0.8051   19.4666 N   0  0  0  0  0  0  0  0  0  0  0  0
  2  1  1  0  0  0
  2  3  1  0  0  0
  3  4  1  0  0  0
  4 19  1  0  0  0
 19 20  2  0  0  0
 20 21  1  0  0  0
 21 22  2  0  0  0
 22 23  1  0  0  0
 23 24  2  0  0  0
 24 25  1  0  0  0
 25 26  2  0  0  0
 26 27  1  0  0  0
 27 28  2  0  0  0
  4  5  1  0  0  0
  5  6  2  0  0  0
  5  7  1  0  0  0
  7  8  1  0  0  0
  8  9  1  0  0  0
  9 29  1  0  0  0
 29 30  1  0  0  0
 30 31  1  0  0  0
 31 32  2  0  0  0
 32 33  1  0  0  0
 33 34  1  0  0  0
  9 10  1  0  0  0
 10 11  2  0  0  0
 10 12  1  0  0  0
 12 13  2  0  0  0
 13 14  1  0  0  0
 14 15  2  0  0  0
 15 16  1  0  0  0
 15 17  1  0  0  0
 17 18  2  0  0  0
  7  2  1  0  0  0
 34 30  2  0  0  0
 18 12  1  0  0  0
 28 19  1  0  0  0
 18  7  1  0  0  0
 28 23  1  0  0  0
M  END
> <minimizedAffinity>
-8.27387

> <CNNscore>
0.4723706543

> <CNNaffinity>
6.4340147972

> <CNN_VS>
3.0392398834

> <CNNaffinity_variance>
0.0785148516

$$$$



 34 39  0  0  0  0  0  0  0  0999 V2000
   11.0327    0.1248   22.5363 C   0  0  0  0  0  0  0  0  0  0  0  0
    9.6604   -0.4247   22.2817 C   0  0  0  0  0  0  0  0  0  0  0  0
    8.9365    0.3433   21.2158 C   0  0  0  0  0  0  0  0  0  0  0  0
    7.5833   -0.2781   21.0348 N   0  0  0  0  0  0  0  0  0  0  0  0
    7.4709   -1.4301   21.9889 C   0  0  0  0  0  0  0  0  0  0  0  0
    6.2833   -2.3330   22.1450 O   0  0  0  0  0  0  0  0  0  0  0  0
    8.7546   -1.5207   22.7596 C   0  0  0  0  0  0  0  0  0  0  0  0
    7.7435   -2.5635   23.1339 C   0  0  0  0  0  0  0  0  0  0  0  0
    8.0650   -3.5729   24.1958 N   0  0  0  0  0  0  0  0  0  0  0  0
    9.3976   -3.5394   24.8835 C   0  0  0  0  0  0  0  0  0  0  0  0
    9.7191   -4.5488   25.9455 O   0  0  0  0  0  0  0  0  0  0  0  0
   10.4088   -2.4966   24.5093 C   0  0  0  0  0  0  0  0  0  0  0  0
   11.7414   -2.4632   25.1970 C   0  0  0  0  0  0  0  0  0  0  0  0
   12.7525   -1.4204   24.8227 C   0  0  0  0  0  0  0  0  0  0  0  0
   12.4310   -0.4110   23.7607 C   0  0  0  0  0  0  0  0  0  0  0  0
   13.4423    0.6318   23.3864 F   0  0  0  0  0  0  0  0  0  0  0  0
   11.0984   -0.4444   23.0730 C   0  0  0  0  0  0  0  0  0  0  0  0
   10.0873   -1.4872   23.4473 C   0  0  0  0  0  0  0  0  0  0  0  0
    6.5278    0.1732   20.0693 C   0  0  0  0  0  0  0  0  0  0  0  0
    6.4372   -0.4542   18.7099 C   0  0  0  0  0  0  0  0  0  0  0  0
    5.3817   -0.0029   17.7444 N   0  0  0  0  0  0  0  0  0  0  0  0
    4.4168    1.0759   18.1384 C   0  0  0  0  0  0  0  0  0  0  0  0
    4.5074    1.7034   19.4978 C   0  0  0  0  0  0  0  0  0  0  0  0
    3.5425    2.7822   19.8918 C   0  0  0  0  0  0  0  0  0  0  0  0
    3.6332    3.4096   21.2513 C   0  0  0  0  0  0  0  0  0  0  0  0
    4.6887    2.9582   22.2167 C   0  0  0  0  0  0  0  0  0  0  0  0
    5.6535    1.8794   21.8227 C   0  0  0  0  0  0  0  0  0  0  0  0
    5.5629    1.2520   20.4634 C   0  0  0  0  0  0  0  0  0  0  0  0
    7.0537   -4.6157   24.5701 C   0  0  0  0  0  0  0  0  0  0  0  0
    6.2108   -5.2581   23.5087 C   0  0  0  0  0  0  0  0  0  0  0  0
    6.7171   -5.9228   22.2630 C   0  0  0  0  0  0  0  0  0  0  0  0
    5.5328   -6.4241   21.4910 C   0  0  0  0  0  0  0  0  0  0  0  0
    4.2944   -6.0692   22.2595 O   0  0  0  0  0  0  0  0  0  0  0  0
    4.7135   -5.3486   23.5065 N   0  0  0  0  0  0  0  0  0  0  0  0
  2  1  1  0  0  0
  2  3  1  0  0  0
  3  4  1  0  0  0
  4 19  1  0  0  0
 19 20  2  0  0  0
 20 21  1  0  0  0
 21 22  2  0  0  0
 22 23  1  0  0  0
 23 24  2  0  0  0
 24 25  1  0  0  0
 25 26  2  0  0  0
 26 27  1  0  0  0
 27 28  2  0  0  0
  4  5  1  0  0  0
  5  6  2  0  0  0
  5  7  1  0  0  0
  7  8  1  0  0  0
  8  9  1  0  0  0
  9 29  1  0  0  0
 29 30  1  0  0  0
 30 31  1  0  0  0
 31 32  2  0  0  0
 32 33  1  0  0  0
 33 34  1  0  0  0
  9 10  1  0  0  0
 10 11  2  0  0  0
 10 12  1  0  0  0
 12 13  2  0  0  0
 13 14  1  0  0  0
 14 15  2  0  0  0
 15 16  1  0  0  0
 15 17  1  0  0  0
 17 18  2  0  0  0
  7  2  1  0  0  0
 34 30  2  0  0  0
 18 12  1  0  0  0
 28 19  1  0  0  0
 18  7  1  0  0  0
 28 23  1  0  0  0
M  END
> <minimizedAffinity>
-9.39104

> <CNNscore>
0.4054858088

> <CNNaffinity>
6.5600485802

> <CNN_VS>
2.6600065231

> <CNNaffinity_variance>
0.1852606237

$$$$



 34 39  0  0  0  0  0  0  0  0999 V2000
   10.6999   -1.9054   25.3880 C   0  0  0  0  0  0  0  0  0  0  0  0
    9.2247   -1.9633   25.1224 C   0  0  0  0  0  0  0  0  0  0  0  0
    8.5544   -3.0506   25.9089 C   0  0  0  0  0  0  0  0  0  0  0  0
    7.0917   -3.0283   25.5773 N   0  0  0  0  0  0  0  0  0  0  0  0
    6.8580   -1.9271   24.5858 C   0  0  0  0  0  0  0  0  0  0  0  0
    5.5378   -1.5504   23.9816 O   0  0  0  0  0  0  0  0  0  0  0  0
    8.1762   -1.2690   24.3047 C   0  0  0  0  0  0  0  0  0  0  0  0
    7.0243   -0.6743   23.5502 C   0  0  0  0  0  0  0  0  0  0  0  0
    7.2538    0.4762   22.6155 N   0  0  0  0  0  0  0  0  0  0  0  0
    8.6352    1.0321   22.4353 C   0  0  0  0  0  0  0  0  0  0  0  0
    8.8647    2.1826   21.5006 O   0  0  0  0  0  0  0  0  0  0  0  0
    9.7873    0.4374   23.1898 C   0  0  0  0  0  0  0  0  0  0  0  0
   11.1688    0.9933   23.0097 C   0  0  0  0  0  0  0  0  0  0  0  0
   12.3207    0.3987   23.7642 C   0  0  0  0  0  0  0  0  0  0  0  0
   12.0912   -0.7518   24.6989 C   0  0  0  0  0  0  0  0  0  0  0  0
   13.2433   -1.3464   25.4534 F   0  0  0  0  0  0  0  0  0  0  0  0
   10.7098   -1.3077   24.8791 C   0  0  0  0  0  0  0  0  0  0  0  0
    9.5578   -0.7131   24.1245 C   0  0  0  0  0  0  0  0  0  0  0  0
    6.0463   -3.9459   26.1385 C   0  0  0  0  0  0  0  0  0  0  0  0
    5.5280   -5.0861   25.3133 C   0  0  0  0  0  0  0  0  0  0  0  0
    4.4825   -6.0037   25.8745 N   0  0  0  0  0  0  0  0  0  0  0  0
    3.9554   -5.7810   27.2611 C   0  0  0  0  0  0  0  0  0  0  0  0
    4.4738   -4.6407   28.0864 C   0  0  0  0  0  0  0  0  0  0  0  0
    3.9466   -4.4181   29.4730 C   0  0  0  0  0  0  0  0  0  0  0  0
    4.4650   -3.2778   30.2982 C   0  0  0  0  0  0  0  0  0  0  0  0
    5.5104   -2.3603   29.7369 C   0  0  0  0  0  0  0  0  0  0  0  0
    6.0375   -2.5829   28.3504 C   0  0  0  0  0  0  0  0  0  0  0  0
    5.5192   -3.7231   27.5251 C   0  0  0  0  0  0  0  0  0  0  0  0
    6.1017    1.0708   21.8609 C   0  0  0  0  0  0  0  0  0  0  0  0
    5.9768    0.8456   20.3832 C   0  0  0  0  0  0  0  0  0  0  0  0
    4.7411    1.0595   19.5602 C   0  0  0  0  0  0  0  0  0  0  0  0
    5.0662    0.7130   18.1374 C   0  0  0  0  0  0  0  0  0  0  0  0
    6.5027    0.2850   18.0811 O   0  0  0  0  0  0  0  0  0  0  0  0
    7.0655    0.3669   19.4691 N   0  0  0  0  0  0  0  0  0  0  0  0
  2  1  1  0  0  0
  2  3  1  0  0  0
  3  4  1  0  0  0
  4 19  1  0  0  0
 19 20  2  0  0  0
 20 21  1  0  0  0
 21 22  2  0  0  0
 22 23  1  0  0  0
 23 24  2  0  0  0
 24 25  1  0  0  0
 25 26  2  0  0  0
 26 27  1  0  0  0
 27 28  2  0  0  0
  4  5  1  0  0  0
  5  6  2  0  0  0
  5  7  1  0  0  0
  7  8  1  0  0  0
  8  9  1  0  0  0
  9 29  1  0  0  0
 29 30  1  0  0  0
 30 31  1  0  0  0
 31 32  2  0  0  0
 32 33  1  0  0  0
 33 34  1  0  0  0
  9 10  1  0  0  0
 10 11  2  0  0  0
 10 12  1  0  0  0
 12 13  2  0  0  0
 13 14  1  0  0  0
 14 15  2  0  0  0
 15 16  1  0  0  0
 15 17  1  0  0  0
 17 18  2  0  0  0
  7  2  1  0  0  0
 34 30  2  0  0  0
 18 12  1  0  0  0
 28 19  1  0  0  0
 18  7  1  0  0  0
 28 23  1  0  0  0
M  END
> <minimizedAffinity>
-9.18178

> <CNNscore>
0.3485370576

> <CNNaffinity>
6.3770012856

> <CNN_VS>
2.2226212025

> <CNNaffinity_variance>
0.0998082310

$$$$



 34 39  0  0  0  0  0  0  0  0999 V2000
    7.2769    0.2114   20.2148 C   0  0  0  0  0  0  0  0  0  0  0  0
    7.6067    0.0603   21.6704 C   0  0  0  0  0  0  0  0  0  0  0  0
    9.0351   -0.3447   21.8837 C   0  0  0  0  0  0  0  0  0  0  0  0
    9.2659   -0.4692   23.3606 N   0  0  0  0  0  0  0  0  0  0  0  0
    7.9801   -0.1412   24.0600 C   0  0  0  0  0  0  0  0  0  0  0  0
    7.7587   -0.1406   25.5436 O   0  0  0  0  0  0  0  0  0  0  0  0
    6.9546    0.1860   23.0154 C   0  0  0  0  0  0  0  0  0  0  0  0
    6.4410    0.2709   24.4221 C   0  0  0  0  0  0  0  0  0  0  0  0
    5.0140    0.6562   24.6776 N   0  0  0  0  0  0  0  0  0  0  0  0
    4.1007    0.9567   23.5264 C   0  0  0  0  0  0  0  0  0  0  0  0
    2.6737    1.3420   23.7819 O   0  0  0  0  0  0  0  0  0  0  0  0
    4.6143    0.8719   22.1195 C   0  0  0  0  0  0  0  0  0  0  0  0
    3.7009    1.1724   20.9683 C   0  0  0  0  0  0  0  0  0  0  0  0
    4.2145    1.0875   19.5615 C   0  0  0  0  0  0  0  0  0  0  0  0
    5.6415    0.7022   19.3060 C   0  0  0  0  0  0  0  0  0  0  0  0
    6.1551    0.6174   17.8992 F   0  0  0  0  0  0  0  0  0  0  0  0
    6.5548    0.4017   20.4573 C   0  0  0  0  0  0  0  0  0  0  0  0
    6.0412    0.4865   21.8640 C   0  0  0  0  0  0  0  0  0  0  0  0
   10.5560   -0.8541   24.0221 C   0  0  0  0  0  0  0  0  0  0  0  0
   11.7636    0.0238   23.8784 C   0  0  0  0  0  0  0  0  0  0  0  0
   13.0537   -0.3611   24.5398 N   0  0  0  0  0  0  0  0  0  0  0  0
   13.1361   -1.6240   25.3449 C   0  0  0  0  0  0  0  0  0  0  0  0
   11.9284   -2.5020   25.4886 C   0  0  0  0  0  0  0  0  0  0  0  0
   12.0109   -3.7650   26.2937 C   0  0  0  0  0  0  0  0  0  0  0  0
   10.8031   -4.6430   26.4373 C   0  0  0  0  0  0  0  0  0  0  0  0
    9.5131   -4.2580   25.7759 C   0  0  0  0  0  0  0  0  0  0  0  0
    9.4307   -2.9951   24.9708 C   0  0  0  0  0  0  0  0  0  0  0  0
   10.6383   -2.1171   24.8271 C   0  0  0  0  0  0  0  0  0  0  0  0
    4.5005    0.7410   26.0844 C   0  0  0  0  0  0  0  0  0  0  0  0
    5.2587    1.5257   27.1136 C   0  0  0  0  0  0  0  0  0  0  0  0
    5.7115    1.0195   28.4510 C   0  0  0  0  0  0  0  0  0  0  0  0
    6.4299    2.1353   29.1501 C   0  0  0  0  0  0  0  0  0  0  0  0
    6.4211    3.3313   28.2447 O   0  0  0  0  0  0  0  0  0  0  0  0
    5.6972    2.9545   26.9861 N   0  0  0  0  0  0  0  0  0  0  0  0
  2  1  1  0  0  0
  2  3  1  0  0  0
  3  4  1  0  0  0
  4 19  1  0  0  0
 19 20  2  0  0  0
 20 21  1  0  0  0
 21 22  2  0  0  0
 22 23  1  0  0  0
 23 24  2  0  0  0
 24 25  1  0  0  0
 25 26  2  0  0  0
 26 27  1  0  0  0
 27 28  2  0  0  0
  4  5  1  0  0  0
  5  6  2  0  0  0
  5  7  1  0  0  0
  7  8  1  0  0  0
  8  9  1  0  0  0
  9 29  1  0  0  0
 29 30  1  0  0  0
 30 31  1  0  0  0
 31 32  2  0  0  0
 32 33  1  0  0  0
 33 34  1  0  0  0
  9 10  1  0  0  0
 10 11  2  0  0  0
 10 12  1  0  0  0
 12 13  2  0  0  0
 13 14  1  0  0  0
 14 15  2  0  0  0
 15 16  1  0  0  0
 15 17  1  0  0  0
 17 18  2  0  0  0
  7  2  1  0  0  0
 34 30  2  0  0  0
 18 12  1  0  0  0
 28 19  1  0  0  0
 18  7  1  0  0  0
 28 23  1  0  0  0
M  END
> <minimizedAffinity>
-8.46607

> <CNNscore>
0.3412459493

> <CNNaffinity>
6.3976984024

> <CNN_VS>
2.1831886768

> <CNNaffinity_variance>
0.0466283970

$$$$



 34 39  0  0  0  0  0  0  0  0999 V2000
   10.4644   -3.5044   25.2636 C   0  0  0  0  0  0  0  0  0  0  0  0
    9.1856   -3.2065   24.5383 C   0  0  0  0  0  0  0  0  0  0  0  0
    8.1958   -4.3268   24.6612 C   0  0  0  0  0  0  0  0  0  0  0  0
    6.9586   -3.9370   23.9080 N   0  0  0  0  0  0  0  0  0  0  0  0
    7.1837   -2.5757   23.3197 C   0  0  0  0  0  0  0  0  0  0  0  0
    6.2044   -1.8017   22.4878 O   0  0  0  0  0  0  0  0  0  0  0  0
    8.5601   -2.1242   23.7092 C   0  0  0  0  0  0  0  0  0  0  0  0
    7.8080   -1.1342   22.8700 C   0  0  0  0  0  0  0  0  0  0  0  0
    8.4468    0.1705   22.4962 N   0  0  0  0  0  0  0  0  0  0  0  0
    9.8376    0.4852   22.9615 C   0  0  0  0  0  0  0  0  0  0  0  0
   10.4763    1.7899   22.5876 O   0  0  0  0  0  0  0  0  0  0  0  0
   10.5897   -0.5048   23.8007 C   0  0  0  0  0  0  0  0  0  0  0  0
   11.9805   -0.1901   24.2660 C   0  0  0  0  0  0  0  0  0  0  0  0
   12.7326   -1.1800   25.1052 C   0  0  0  0  0  0  0  0  0  0  0  0
   12.0939   -2.4847   25.4791 C   0  0  0  0  0  0  0  0  0  0  0  0
   12.8460   -3.4747   26.3184 F   0  0  0  0  0  0  0  0  0  0  0  0
   10.7031   -2.7994   25.0138 C   0  0  0  0  0  0  0  0  0  0  0  0
    9.9510   -1.8095   24.1746 C   0  0  0  0  0  0  0  0  0  0  0  0
    5.7146   -4.7633   23.7678 C   0  0  0  0  0  0  0  0  0  0  0  0
    5.3645   -5.3728   22.4427 C   0  0  0  0  0  0  0  0  0  0  0  0
    4.1205   -6.1991   22.3025 N   0  0  0  0  0  0  0  0  0  0  0  0
    3.2267   -6.4159   23.4873 C   0  0  0  0  0  0  0  0  0  0  0  0
    3.5768   -5.8064   24.8125 C   0  0  0  0  0  0  0  0  0  0  0  0
    2.6829   -6.0233   25.9974 C   0  0  0  0  0  0  0  0  0  0  0  0
    3.0331   -5.4138   27.3225 C   0  0  0  0  0  0  0  0  0  0  0  0
    4.2770   -4.5875   27.4627 C   0  0  0  0  0  0  0  0  0  0  0  0
    5.1709   -4.3707   26.2778 C   0  0  0  0  0  0  0  0  0  0  0  0
    4.8208   -4.9801   24.9527 C   0  0  0  0  0  0  0  0  0  0  0  0
    7.6946    1.1605   21.6569 C   0  0  0  0  0  0  0  0  0  0  0  0
    6.9298    0.6955   20.4533 C   0  0  0  0  0  0  0  0  0  0  0  0
    5.5344    1.1032   20.0837 C   0  0  0  0  0  0  0  0  0  0  0  0
    5.1682    0.4008   18.8100 C   0  0  0  0  0  0  0  0  0  0  0  0
    6.3374   -0.4411   18.3922 O   0  0  0  0  0  0  0  0  0  0  0  0
    7.4260   -0.2590   19.4079 N   0  0  0  0  0  0  0  0  0  0  0  0
  2  1  1  0  0  0
  2  3  1  0  0  0
  3  4  1  0  0  0
  4 19  1  0  0  0
 19 20  2  0  0  0
 20 21  1  0  0  0
 21 22  2  0  0  0
 22 23  1  0  0  0
 23 24  2  0  0  0
 24 25  1  0  0  0
 25 26  2  0  0  0
 26 27  1  0  0  0
 27 28  2  0  0  0
  4  5  1  0  0  0
  5  6  2  0  0  0
  5  7  1  0  0  0
  7  8  1  0  0  0
  8  9  1  0  0  0
  9 29  1  0  0  0
 29 30  1  0  0  0
 30 31  1  0  0  0
 31 32  2  0  0  0
 32 33  1  0  0  0
 33 34  1  0  0  0
  9 10  1  0  0  0
 10 11  2  0  0  0
 10 12  1  0  0  0
 12 13  2  0  0  0
 13 14  1  0  0  0
 14 15  2  0  0  0
 15 16  1  0  0  0
 15 17  1  0  0  0
 17 18  2  0  0  0
  7  2  1  0  0  0
 34 30  2  0  0  0
 18 12  1  0  0  0
 28 19  1  0  0  0
 18  7  1  0  0  0
 28 23  1  0  0  0
M  END
> <minimizedAffinity>
-9.23236

> <CNNscore>
0.3183818460

> <CNNaffinity>
6.4866991043

> <CNN_VS>
2.0652472973

> <CNNaffinity_variance>
0.1123624444

$$$$
