


 24 26  0  0  0  0  0  0  0  0999 V2000
    8.2582   -5.7430   24.1369 O   0  0  0  0  0  0  0  0  0  0  0  0
    7.5240   -4.6711   24.8867 C   0  0  0  0  0  0  0  0  0  0  0  0
    6.0843   -4.8679   25.2586 N   0  0  0  0  0  0  0  0  0  0  0  0
    5.4745   -6.1707   24.8334 C   0  0  0  0  0  0  0  0  0  0  0  0
    4.0744   -6.6632   25.0511 C   0  0  0  0  0  0  0  0  0  0  0  0
    2.9384   -5.9746   25.7478 C   0  0  0  0  0  0  0  0  0  0  0  0
    2.9219   -4.6233   26.3989 S   0  0  0  0  0  0  0  0  0  0  0  0
    4.0374   -3.6270   26.5140 C   0  0  0  0  0  0  0  0  0  0  0  0
    5.4447   -3.7359   26.0065 C   0  0  0  0  0  0  0  0  0  0  0  0
    6.3295   -2.5567   26.2837 C   0  0  0  0  0  0  0  0  0  0  0  0
    7.2142   -1.3776   26.5608 F   0  0  0  0  0  0  0  0  0  0  0  0
    6.7578   -3.1822   27.5780 F   0  0  0  0  0  0  0  0  0  0  0  0
    5.9012   -1.9311   24.9894 F   0  0  0  0  0  0  0  0  0  0  0  0
    8.2296   -3.4026   25.2646 C   0  0  0  0  0  0  0  0  0  0  0  0
    9.1862   -2.7615   24.3033 C   0  0  0  0  0  0  0  0  0  0  0  0
    8.7027   -2.2973   22.9614 C   0  0  0  0  0  0  0  0  0  0  0  0
    9.6593   -1.6562   22.0002 N   0  0  0  0  0  0  0  0  0  0  0  0
   11.0993   -1.4793   22.3808 C   0  0  0  0  0  0  0  0  0  0  0  0
   11.5829   -1.9434   23.7228 C   0  0  0  0  0  0  0  0  0  0  0  0
   13.0229   -1.7665   24.1035 C   0  0  0  0  0  0  0  0  0  0  0  0
   13.5064   -2.2306   25.4454 C   0  0  0  0  0  0  0  0  0  0  0  0
   12.5498   -2.8717   26.4066 C   0  0  0  0  0  0  0  0  0  0  0  0
   11.1098   -3.0487   26.0259 C   0  0  0  0  0  0  0  0  0  0  0  0
   10.6263   -2.5845   24.6840 C   0  0  0  0  0  0  0  0  0  0  0  0
  1  2  2  0  0  0
  2 14  1  0  0  0
 14 15  1  0  0  0
 15 16  2  0  0  0
 16 17  1  0  0  0
 17 18  2  0  0  0
 18 19  1  0  0  0
 19 20  2  0  0  0
 20 21  1  0  0  0
 21 22  2  0  0  0
 22 23  1  0  0  0
 23 24  2  0  0  0
  2  3  1  0  0  0
  3  4  1  0  0  0
  4  5  1  0  0  0
  5  6  1  0  0  0
  6  7  1  0  0  0
  7  8  1  0  0  0
  8  9  1  0  0  0
  9 10  1  0  0  0
 10 11  1  0  0  0
 10 12  1  0  0  0
 10 13  1  0  0  0
 24 15  1  0  0  0
  9  3  1  0  0  0
 24 19  1  0  0  0
M  END
> <minimizedAffinity>
-6.46595

> <CNNscore>
0.5907194614

> <CNNaffinity>
5.9222555161

> <CNN_VS>
3.4983916283

> <CNNaffinity_variance>
0.2888669074

$$$$



 24 26  0  0  0  0  0  0  0  0999 V2000
    8.1512   -6.0749   24.0650 O   0  0  0  0  0  0  0  0  0  0  0  0
    7.5759   -4.7743   24.5422 C   0  0  0  0  0  0  0  0  0  0  0  0
    6.1991   -4.7363   25.1362 N   0  0  0  0  0  0  0  0  0  0  0  0
    5.4840   -6.0531   25.2066 C   0  0  0  0  0  0  0  0  0  0  0  0
    4.1127   -6.3452   25.7395 C   0  0  0  0  0  0  0  0  0  0  0  0
    3.1176   -5.3929   26.3336 C   0  0  0  0  0  0  0  0  0  0  0  0
    3.2482   -3.9131   26.5416 S   0  0  0  0  0  0  0  0  0  0  0  0
    4.4061   -3.0203   26.2068 C   0  0  0  0  0  0  0  0  0  0  0  0
    5.7194   -3.3866   25.5814 C   0  0  0  0  0  0  0  0  0  0  0  0
    6.6799   -2.2534   25.3736 C   0  0  0  0  0  0  0  0  0  0  0  0
    7.6403   -1.1201   25.1658 F   0  0  0  0  0  0  0  0  0  0  0  0
    7.2126   -2.4503   26.7618 F   0  0  0  0  0  0  0  0  0  0  0  0
    6.1471   -2.0563   23.9853 F   0  0  0  0  0  0  0  0  0  0  0  0
    8.3774   -3.5118   24.4253 C   0  0  0  0  0  0  0  0  0  0  0  0
    9.7415   -3.4295   25.0437 C   0  0  0  0  0  0  0  0  0  0  0  0
   10.0901   -4.3052   26.2105 C   0  0  0  0  0  0  0  0  0  0  0  0
   11.4542   -4.2229   26.8290 N   0  0  0  0  0  0  0  0  0  0  0  0
   12.4697   -3.2648   26.2806 C   0  0  0  0  0  0  0  0  0  0  0  0
   12.1211   -2.3890   25.1137 C   0  0  0  0  0  0  0  0  0  0  0  0
   13.1366   -1.4309   24.5653 C   0  0  0  0  0  0  0  0  0  0  0  0
   12.7880   -0.5551   23.3985 C   0  0  0  0  0  0  0  0  0  0  0  0
   11.4239   -0.6375   22.7801 C   0  0  0  0  0  0  0  0  0  0  0  0
   10.4084   -1.5956   23.3285 C   0  0  0  0  0  0  0  0  0  0  0  0
   10.7570   -2.4713   24.4953 C   0  0  0  0  0  0  0  0  0  0  0  0
  1  2  2  0  0  0
  2 14  1  0  0  0
 14 15  1  0  0  0
 15 16  2  0  0  0
 16 17  1  0  0  0
 17 18  2  0  0  0
 18 19  1  0  0  0
 19 20  2  0  0  0
 20 21  1  0  0  0
 21 22  2  0  0  0
 22 23  1  0  0  0
 23 24  2  0  0  0
  2  3  1  0  0  0
  3  4  1  0  0  0
  4  5  1  0  0  0
  5  6  1  0  0  0
  6  7  1  0  0  0
  7  8  1  0  0  0
  8  9  1  0  0  0
  9 10  1  0  0  0
 10 11  1  0  0  0
 10 12  1  0  0  0
 10 13  1  0  0  0
 24 15  1  0  0  0
  9  3  1  0  0  0
 24 19  1  0  0  0
M  END
> <minimizedAffinity>
-6.45832

> <CNNscore>
0.5375497341

> <CNNaffinity>
5.8648300171

> <CNN_VS>
3.1526377201

> <CNNaffinity_variance>
0.1879971921

$$$$



 24 26  0  0  0  0  0  0  0  0999 V2000
   12.3302   -0.7901   22.2601 O   0  0  0  0  0  0  0  0  0  0  0  0
   10.9930   -0.1817   22.5634 C   0  0  0  0  0  0  0  0  0  0  0  0
   10.8545    1.3078   22.6740 N   0  0  0  0  0  0  0  0  0  0  0  0
   12.1134    2.0959   22.4640 C   0  0  0  0  0  0  0  0  0  0  0  0
   12.3040    3.5830   22.5082 C   0  0  0  0  0  0  0  0  0  0  0  0
   11.2829    4.6494   22.7732 C   0  0  0  0  0  0  0  0  0  0  0  0
    9.8190    4.4920   23.0596 S   0  0  0  0  0  0  0  0  0  0  0  0
    9.0146    3.2293   23.1516 C   0  0  0  0  0  0  0  0  0  0  0  0
    9.4754    1.8121   22.9800 C   0  0  0  0  0  0  0  0  0  0  0  0
    8.4172    0.7604   23.1349 C   0  0  0  0  0  0  0  0  0  0  0  0
    7.3590   -0.2913   23.2899 F   0  0  0  0  0  0  0  0  0  0  0  0
    8.1330    0.8296   21.6638 F   0  0  0  0  0  0  0  0  0  0  0  0
    8.7013    0.6912   24.6062 F   0  0  0  0  0  0  0  0  0  0  0  0
    9.7945   -1.0628   22.7561 C   0  0  0  0  0  0  0  0  0  0  0  0
    9.8565   -2.2142   23.7155 C   0  0  0  0  0  0  0  0  0  0  0  0
    8.7638   -3.2417   23.7256 C   0  0  0  0  0  0  0  0  0  0  0  0
    8.8258   -4.3930   24.6851 N   0  0  0  0  0  0  0  0  0  0  0  0
    9.9805   -4.5169   25.6345 C   0  0  0  0  0  0  0  0  0  0  0  0
   11.0732   -3.4893   25.6244 C   0  0  0  0  0  0  0  0  0  0  0  0
   12.2279   -3.6131   26.5737 C   0  0  0  0  0  0  0  0  0  0  0  0
   13.3206   -2.5856   26.5636 C   0  0  0  0  0  0  0  0  0  0  0  0
   13.2586   -1.4342   25.6042 C   0  0  0  0  0  0  0  0  0  0  0  0
   12.1040   -1.3104   24.6548 C   0  0  0  0  0  0  0  0  0  0  0  0
   11.0113   -2.3380   24.6649 C   0  0  0  0  0  0  0  0  0  0  0  0
  1  2  2  0  0  0
  2 14  1  0  0  0
 14 15  1  0  0  0
 15 16  2  0  0  0
 16 17  1  0  0  0
 17 18  2  0  0  0
 18 19  1  0  0  0
 19 20  2  0  0  0
 20 21  1  0  0  0
 21 22  2  0  0  0
 22 23  1  0  0  0
 23 24  2  0  0  0
  2  3  1  0  0  0
  3  4  1  0  0  0
  4  5  1  0  0  0
  5  6  1  0  0  0
  6  7  1  0  0  0
  7  8  1  0  0  0
  8  9  1  0  0  0
  9 10  1  0  0  0
 10 11  1  0  0  0
 10 12  1  0  0  0
 10 13  1  0  0  0
 24 15  1  0  0  0
  9  3  1  0  0  0
 24 19  1  0  0  0
M  END
> <minimizedAffinity>
-6.81201

> <CNNscore>
0.4654754996

> <CNNaffinity>
5.8143529892

> <CNN_VS>
2.7064387798

> <CNNaffinity_variance>
0.0100780576

$$$$



 24 26  0  0  0  0  0  0  0  0999 V2000
    8.2506   -2.4258   23.1951 O   0  0  0  0  0  0  0  0  0  0  0  0
    9.5399   -1.6593   23.2057 C   0  0  0  0  0  0  0  0  0  0  0  0
   10.6388   -2.0531   24.1477 N   0  0  0  0  0  0  0  0  0  0  0  0
   10.3459   -3.2262   25.0353 C   0  0  0  0  0  0  0  0  0  0  0  0
   11.2272   -3.8577   26.0719 C   0  0  0  0  0  0  0  0  0  0  0  0
   12.6190   -3.4720   26.4770 C   0  0  0  0  0  0  0  0  0  0  0  0
   13.4734   -2.3596   25.9454 S   0  0  0  0  0  0  0  0  0  0  0  0
   13.1468   -1.3581   24.8775 C   0  0  0  0  0  0  0  0  0  0  0  0
   11.8853   -1.2217   24.0774 C   0  0  0  0  0  0  0  0  0  0  0  0
   11.8682   -0.1064   23.0745 C   0  0  0  0  0  0  0  0  0  0  0  0
   11.8510    1.0089   22.0717 F   0  0  0  0  0  0  0  0  0  0  0  0
   12.3375   -1.0549   22.0116 F   0  0  0  0  0  0  0  0  0  0  0  0
   11.3987    0.8422   24.1374 F   0  0  0  0  0  0  0  0  0  0  0  0
    9.7303   -0.4990   22.2744 C   0  0  0  0  0  0  0  0  0  0  0  0
    8.5473    0.1061   21.5784 C   0  0  0  0  0  0  0  0  0  0  0  0
    7.8801   -0.6309   20.4552 C   0  0  0  0  0  0  0  0  0  0  0  0
    6.6971   -0.0258   19.7593 N   0  0  0  0  0  0  0  0  0  0  0  0
    6.1813    1.3163   20.1866 C   0  0  0  0  0  0  0  0  0  0  0  0
    6.8485    2.0534   21.3099 C   0  0  0  0  0  0  0  0  0  0  0  0
    6.3326    3.3955   21.7371 C   0  0  0  0  0  0  0  0  0  0  0  0
    6.9998    4.1325   22.8603 C   0  0  0  0  0  0  0  0  0  0  0  0
    8.1828    3.5274   23.5563 C   0  0  0  0  0  0  0  0  0  0  0  0
    8.6987    2.1853   23.1290 C   0  0  0  0  0  0  0  0  0  0  0  0
    8.0315    1.4483   22.0058 C   0  0  0  0  0  0  0  0  0  0  0  0
  1  2  2  0  0  0
  2 14  1  0  0  0
 14 15  1  0  0  0
 15 16  2  0  0  0
 16 17  1  0  0  0
 17 18  2  0  0  0
 18 19  1  0  0  0
 19 20  2  0  0  0
 20 21  1  0  0  0
 21 22  2  0  0  0
 22 23  1  0  0  0
 23 24  2  0  0  0
  2  3  1  0  0  0
  3  4  1  0  0  0
  4  5  1  0  0  0
  5  6  1  0  0  0
  6  7  1  0  0  0
  7  8  1  0  0  0
  8  9  1  0  0  0
  9 10  1  0  0  0
 10 11  1  0  0  0
 10 12  1  0  0  0
 10 13  1  0  0  0
 24 15  1  0  0  0
  9  3  1  0  0  0
 24 19  1  0  0  0
M  END
> <minimizedAffinity>
-7.00080

> <CNNscore>
0.4055773318

> <CNNaffinity>
5.6301035881

> <CNN_VS>
2.2834424973

> <CNNaffinity_variance>
0.1661848724

$$$$



 24 26  0  0  0  0  0  0  0  0999 V2000
    7.0426   -0.2539   26.0993 O   0  0  0  0  0  0  0  0  0  0  0  0
    7.8482    0.3608   24.9933 C   0  0  0  0  0  0  0  0  0  0  0  0
    7.7004    1.8202   24.6796 N   0  0  0  0  0  0  0  0  0  0  0  0
    6.7214    2.5730   25.5311 C   0  0  0  0  0  0  0  0  0  0  0  0
    6.3514    4.0253   25.4691 C   0  0  0  0  0  0  0  0  0  0  0  0
    6.8690    5.0836   24.5405 C   0  0  0  0  0  0  0  0  0  0  0  0
    7.8844    4.9508   23.4445 S   0  0  0  0  0  0  0  0  0  0  0  0
    8.6330    3.7270   23.0064 C   0  0  0  0  0  0  0  0  0  0  0  0
    8.5511    2.3338   23.5561 C   0  0  0  0  0  0  0  0  0  0  0  0
    9.4372    1.3201   22.8947 C   0  0  0  0  0  0  0  0  0  0  0  0
   10.3232    0.3065   22.2334 F   0  0  0  0  0  0  0  0  0  0  0  0
    8.3240    0.9591   21.9565 F   0  0  0  0  0  0  0  0  0  0  0  0
   10.5505    1.6811   23.8329 F   0  0  0  0  0  0  0  0  0  0  0  0
    8.8014   -0.4838   24.2009 C   0  0  0  0  0  0  0  0  0  0  0  0
    9.1401   -1.8693   24.6655 C   0  0  0  0  0  0  0  0  0  0  0  0
    8.1243   -2.9672   24.5535 C   0  0  0  0  0  0  0  0  0  0  0  0
    8.4631   -4.3527   25.0181 N   0  0  0  0  0  0  0  0  0  0  0  0
    9.8176   -4.6401   25.5947 C   0  0  0  0  0  0  0  0  0  0  0  0
   10.8335   -3.5422   25.7067 C   0  0  0  0  0  0  0  0  0  0  0  0
   12.1880   -3.8297   26.2833 C   0  0  0  0  0  0  0  0  0  0  0  0
   13.2039   -2.7317   26.3954 C   0  0  0  0  0  0  0  0  0  0  0  0
   12.8651   -1.3463   25.9308 C   0  0  0  0  0  0  0  0  0  0  0  0
   11.5106   -1.0588   25.3542 C   0  0  0  0  0  0  0  0  0  0  0  0
   10.4948   -2.1567   25.2421 C   0  0  0  0  0  0  0  0  0  0  0  0
  1  2  2  0  0  0
  2 14  1  0  0  0
 14 15  1  0  0  0
 15 16  2  0  0  0
 16 17  1  0  0  0
 17 18  2  0  0  0
 18 19  1  0  0  0
 19 20  2  0  0  0
 20 21  1  0  0  0
 21 22  2  0  0  0
 22 23  1  0  0  0
 23 24  2  0  0  0
  2  3  1  0  0  0
  3  4  1  0  0  0
  4  5  1  0  0  0
  5  6  1  0  0  0
  6  7  1  0  0  0
  7  8  1  0  0  0
  8  9  1  0  0  0
  9 10  1  0  0  0
 10 11  1  0  0  0
 10 12  1  0  0  0
 10 13  1  0  0  0
 24 15  1  0  0  0
  9  3  1  0  0  0
 24 19  1  0  0  0
M  END
> <minimizedAffinity>
-6.34462

> <CNNscore>
0.3770722151

> <CNNaffinity>
5.6094269753

> <CNN_VS>
2.1151590347

> <CNNaffinity_variance>
0.4916550517

$$$$



 24 26  0  0  0  0  0  0  0  0999 V2000
    7.0369   -2.6633   26.5208 O   0  0  0  0  0  0  0  0  0  0  0  0
    6.6360   -3.7656   25.5858 C   0  0  0  0  0  0  0  0  0  0  0  0
    5.2410   -4.3153   25.6287 N   0  0  0  0  0  0  0  0  0  0  0  0
    4.3271   -3.6929   26.6424 C   0  0  0  0  0  0  0  0  0  0  0  0
    2.8909   -4.0162   26.9300 C   0  0  0  0  0  0  0  0  0  0  0  0
    2.0137   -5.0416   26.2750 C   0  0  0  0  0  0  0  0  0  0  0  0
    2.3562   -5.9971   25.1705 S   0  0  0  0  0  0  0  0  0  0  0  0
    3.6604   -6.1630   24.4484 C   0  0  0  0  0  0  0  0  0  0  0  0
    4.9443   -5.4146   24.6523 C   0  0  0  0  0  0  0  0  0  0  0  0
    6.0818   -5.8189   23.7620 C   0  0  0  0  0  0  0  0  0  0  0  0
    7.2193   -6.2233   22.8718 F   0  0  0  0  0  0  0  0  0  0  0  0
    5.6459   -4.8062   22.7450 F   0  0  0  0  0  0  0  0  0  0  0  0
    6.5177   -6.8317   24.7790 F   0  0  0  0  0  0  0  0  0  0  0  0
    7.6301   -4.3182   24.6079 C   0  0  0  0  0  0  0  0  0  0  0  0
    8.6817   -3.4239   24.0211 C   0  0  0  0  0  0  0  0  0  0  0  0
    8.4285   -2.7221   22.7198 C   0  0  0  0  0  0  0  0  0  0  0  0
    9.4801   -1.8278   22.1331 N   0  0  0  0  0  0  0  0  0  0  0  0
   10.7849   -1.6353   22.8475 C   0  0  0  0  0  0  0  0  0  0  0  0
   11.0381   -2.3371   24.1489 C   0  0  0  0  0  0  0  0  0  0  0  0
   12.3428   -2.1446   24.8633 C   0  0  0  0  0  0  0  0  0  0  0  0
   12.5960   -2.8465   26.1646 C   0  0  0  0  0  0  0  0  0  0  0  0
   11.5444   -3.7408   26.7514 C   0  0  0  0  0  0  0  0  0  0  0  0
   10.2396   -3.9333   26.0369 C   0  0  0  0  0  0  0  0  0  0  0  0
    9.9865   -3.2314   24.7356 C   0  0  0  0  0  0  0  0  0  0  0  0
  1  2  2  0  0  0
  2 14  1  0  0  0
 14 15  1  0  0  0
 15 16  2  0  0  0
 16 17  1  0  0  0
 17 18  2  0  0  0
 18 19  1  0  0  0
 19 20  2  0  0  0
 20 21  1  0  0  0
 21 22  2  0  0  0
 22 23  1  0  0  0
 23 24  2  0  0  0
  2  3  1  0  0  0
  3  4  1  0  0  0
  4  5  1  0  0  0
  5  6  1  0  0  0
  6  7  1  0  0  0
  7  8  1  0  0  0
  8  9  1  0  0  0
  9 10  1  0  0  0
 10 11  1  0  0  0
 10 12  1  0  0  0
 10 13  1  0  0  0
 24 15  1  0  0  0
  9  3  1  0  0  0
 24 19  1  0  0  0
M  END
> <minimizedAffinity>
-6.42953

> <CNNscore>
0.3742618263

> <CNNaffinity>
5.5420756340

> <CNN_VS>
2.0741872787

> <CNNaffinity_variance>
0.1718775630

$$$$



 24 26  0  0  0  0  0  0  0  0999 V2000
    7.6856   -2.8446   22.5082 O   0  0  0  0  0  0  0  0  0  0  0  0
    8.5548   -2.9745   23.7239 C   0  0  0  0  0  0  0  0  0  0  0  0
    9.9611   -2.4533   23.6995 N   0  0  0  0  0  0  0  0  0  0  0  0
   10.3986   -1.8209   22.4116 C   0  0  0  0  0  0  0  0  0  0  0  0
   11.7271   -1.2125   22.0725 C   0  0  0  0  0  0  0  0  0  0  0  0
   12.9461   -1.0862   22.9374 C   0  0  0  0  0  0  0  0  0  0  0  0
   13.1378   -1.5371   24.3551 S   0  0  0  0  0  0  0  0  0  0  0  0
   12.1577   -2.2257   25.2580 C   0  0  0  0  0  0  0  0  0  0  0  0
   10.7439   -2.6335   24.9663 C   0  0  0  0  0  0  0  0  0  0  0  0
   10.0169   -3.3110   26.0899 C   0  0  0  0  0  0  0  0  0  0  0  0
    9.2900   -3.9884   27.2135 F   0  0  0  0  0  0  0  0  0  0  0  0
   10.5596   -4.6357   25.6423 F   0  0  0  0  0  0  0  0  0  0  0  0
    9.4743   -1.9862   26.5376 F   0  0  0  0  0  0  0  0  0  0  0  0
    8.0175   -3.6256   24.9638 C   0  0  0  0  0  0  0  0  0  0  0  0
    7.0090   -4.7305   24.8540 C   0  0  0  0  0  0  0  0  0  0  0  0
    7.3742   -6.0139   24.1688 C   0  0  0  0  0  0  0  0  0  0  0  0
    6.3657   -7.1188   24.0589 N   0  0  0  0  0  0  0  0  0  0  0  0
    4.9920   -6.9403   24.6343 C   0  0  0  0  0  0  0  0  0  0  0  0
    4.6267   -5.6569   25.3195 C   0  0  0  0  0  0  0  0  0  0  0  0
    3.2531   -5.4784   25.8949 C   0  0  0  0  0  0  0  0  0  0  0  0
    2.8879   -4.1950   26.5801 C   0  0  0  0  0  0  0  0  0  0  0  0
    3.8964   -3.0901   26.6899 C   0  0  0  0  0  0  0  0  0  0  0  0
    5.2701   -3.2686   26.1145 C   0  0  0  0  0  0  0  0  0  0  0  0
    5.6353   -4.5520   25.4294 C   0  0  0  0  0  0  0  0  0  0  0  0
  1  2  2  0  0  0
  2 14  1  0  0  0
 14 15  1  0  0  0
 15 16  2  0  0  0
 16 17  1  0  0  0
 17 18  2  0  0  0
 18 19  1  0  0  0
 19 20  2  0  0  0
 20 21  1  0  0  0
 21 22  2  0  0  0
 22 23  1  0  0  0
 23 24  2  0  0  0
  2  3  1  0  0  0
  3  4  1  0  0  0
  4  5  1  0  0  0
  5  6  1  0  0  0
  6  7  1  0  0  0
  7  8  1  0  0  0
  8  9  1  0  0  0
  9 10  1  0  0  0
 10 11  1  0  0  0
 10 12  1  0  0  0
 10 13  1  0  0  0
 24 15  1  0  0  0
  9  3  1  0  0  0
 24 19  1  0  0  0
M  END
> <minimizedAffinity>
-6.36116

> <CNNscore>
0.3473547697

> <CNNaffinity>
5.5230207443

> <CNN_VS>
1.9184476137

> <CNNaffinity_variance>
0.1292522252

$$$$



 24 26  0  0  0  0  0  0  0  0999 V2000
    8.2133   -1.9515   23.3837 O   0  0  0  0  0  0  0  0  0  0  0  0
    9.5702   -1.3119   23.3738 C   0  0  0  0  0  0  0  0  0  0  0  0
   10.6590   -1.8492   24.2547 N   0  0  0  0  0  0  0  0  0  0  0  0
   10.2861   -3.0272   25.1052 C   0  0  0  0  0  0  0  0  0  0  0  0
   11.1390   -3.7843   26.0796 C   0  0  0  0  0  0  0  0  0  0  0  0
   12.5751   -3.5505   26.4442 C   0  0  0  0  0  0  0  0  0  0  0  0
   13.5132   -2.5018   25.9244 S   0  0  0  0  0  0  0  0  0  0  0  0
   13.2467   -1.4279   24.9115 C   0  0  0  0  0  0  0  0  0  0  0  0
   11.9765   -1.1375   24.1685 C   0  0  0  0  0  0  0  0  0  0  0  0
   12.0311    0.0174   23.2128 C   0  0  0  0  0  0  0  0  0  0  0  0
   12.0857    1.1723   22.2573 F   0  0  0  0  0  0  0  0  0  0  0  0
   12.3837   -0.9218   22.0978 F   0  0  0  0  0  0  0  0  0  0  0  0
   11.6785    0.9568   24.3279 F   0  0  0  0  0  0  0  0  0  0  0  0
    9.8381   -0.1351   22.4832 C   0  0  0  0  0  0  0  0  0  0  0  0
    8.8236    0.9637   22.3666 C   0  0  0  0  0  0  0  0  0  0  0  0
    8.9079    2.1609   23.2663 C   0  0  0  0  0  0  0  0  0  0  0  0
    7.8934    3.2596   23.1497 N   0  0  0  0  0  0  0  0  0  0  0  0
    6.7947    3.1611   22.1334 C   0  0  0  0  0  0  0  0  0  0  0  0
    6.7104    1.9639   21.2336 C   0  0  0  0  0  0  0  0  0  0  0  0
    5.6116    1.8654   20.2173 C   0  0  0  0  0  0  0  0  0  0  0  0
    5.5273    0.6682   19.3176 C   0  0  0  0  0  0  0  0  0  0  0  0
    6.5418   -0.4305   19.4342 C   0  0  0  0  0  0  0  0  0  0  0  0
    7.6406   -0.3321   20.4505 C   0  0  0  0  0  0  0  0  0  0  0  0
    7.7248    0.8651   21.3502 C   0  0  0  0  0  0  0  0  0  0  0  0
  1  2  2  0  0  0
  2 14  1  0  0  0
 14 15  1  0  0  0
 15 16  2  0  0  0
 16 17  1  0  0  0
 17 18  2  0  0  0
 18 19  1  0  0  0
 19 20  2  0  0  0
 20 21  1  0  0  0
 21 22  2  0  0  0
 22 23  1  0  0  0
 23 24  2  0  0  0
  2  3  1  0  0  0
  3  4  1  0  0  0
  4  5  1  0  0  0
  5  6  1  0  0  0
  6  7  1  0  0  0
  7  8  1  0  0  0
  8  9  1  0  0  0
  9 10  1  0  0  0
 10 11  1  0  0  0
 10 12  1  0  0  0
 10 13  1  0  0  0
 24 15  1  0  0  0
  9  3  1  0  0  0
 24 19  1  0  0  0
M  END
> <minimizedAffinity>
-7.19062

> <CNNscore>
0.3452588022

> <CNNaffinity>
5.5339040756

> <CNN_VS>
1.9106290340

> <CNNaffinity_variance>
0.1564424336

$$$$



 24 26  0  0  0  0  0  0  0  0999 V2000
    6.8751   -3.0458   27.5590 O   0  0  0  0  0  0  0  0  0  0  0  0
    6.8498   -3.4632   26.1184 C   0  0  0  0  0  0  0  0  0  0  0  0
    5.7629   -4.3682   25.6188 N   0  0  0  0  0  0  0  0  0  0  0  0
    4.7522   -4.7972   26.6408 C   0  0  0  0  0  0  0  0  0  0  0  0
    3.5594   -5.6885   26.4596 C   0  0  0  0  0  0  0  0  0  0  0  0
    3.0826   -6.3709   25.2117 C   0  0  0  0  0  0  0  0  0  0  0  0
    3.6809   -6.3304   23.8368 S   0  0  0  0  0  0  0  0  0  0  0  0
    4.9038   -5.5976   23.3702 C   0  0  0  0  0  0  0  0  0  0  0  0
    5.8304   -4.7244   24.1633 C   0  0  0  0  0  0  0  0  0  0  0  0
    6.9758   -4.1285   23.3998 C   0  0  0  0  0  0  0  0  0  0  0  0
    8.1212   -3.5327   22.6364 F   0  0  0  0  0  0  0  0  0  0  0  0
    7.8172   -5.3264   23.7272 F   0  0  0  0  0  0  0  0  0  0  0  0
    6.1345   -2.9306   23.0725 F   0  0  0  0  0  0  0  0  0  0  0  0
    7.9114   -2.9757   25.1776 C   0  0  0  0  0  0  0  0  0  0  0  0
    9.3578   -3.0750   25.5625 C   0  0  0  0  0  0  0  0  0  0  0  0
    9.8177   -4.1742   26.4735 C   0  0  0  0  0  0  0  0  0  0  0  0
   11.2641   -4.2734   26.8584 N   0  0  0  0  0  0  0  0  0  0  0  0
   12.2505   -3.2735   26.3323 C   0  0  0  0  0  0  0  0  0  0  0  0
   11.7906   -2.1741   25.4211 C   0  0  0  0  0  0  0  0  0  0  0  0
   12.7771   -1.1742   24.8950 C   0  0  0  0  0  0  0  0  0  0  0  0
   12.3171   -0.0749   23.9839 C   0  0  0  0  0  0  0  0  0  0  0  0
   10.8708    0.0243   23.5990 C   0  0  0  0  0  0  0  0  0  0  0  0
    9.8843   -0.9757   24.1252 C   0  0  0  0  0  0  0  0  0  0  0  0
   10.3443   -2.0749   25.0363 C   0  0  0  0  0  0  0  0  0  0  0  0
  1  2  2  0  0  0
  2 14  1  0  0  0
 14 15  1  0  0  0
 15 16  2  0  0  0
 16 17  1  0  0  0
 17 18  2  0  0  0
 18 19  1  0  0  0
 19 20  2  0  0  0
 20 21  1  0  0  0
 21 22  2  0  0  0
 22 23  1  0  0  0
 23 24  2  0  0  0
  2  3  1  0  0  0
  3  4  1  0  0  0
  4  5  1  0  0  0
  5  6  1  0  0  0
  6  7  1  0  0  0
  7  8  1  0  0  0
  8  9  1  0  0  0
  9 10  1  0  0  0
 10 11  1  0  0  0
 10 12  1  0  0  0
 10 13  1  0  0  0
 24 15  1  0  0  0
  9  3  1  0  0  0
 24 19  1  0  0  0
M  END
> <minimizedAffinity>
-6.36227

> <CNNscore>
0.3100501299

> <CNNaffinity>
5.5858473778

> <CNN_VS>
1.7318927050

> <CNNaffinity_variance>
0.3495815694

$$$$
