


 42 46  0  0  0  0  0  0  0  0999 V2000
   -6.2401   -6.1614  -24.8645 N   0  0  0  0  0  0  0  0  0  0  0  0
   -7.6255   -5.9484  -25.3986 C   0  0  0  0  0  0  0  0  0  0  0  0
   -8.5311   -4.9411  -24.7543 C   0  0  0  0  0  0  0  0  0  0  0  0
   -9.9165   -4.7281  -25.2884 C   0  0  0  0  0  0  0  0  0  0  0  0
  -10.8220   -3.7208  -24.6440 C   0  0  0  0  0  0  0  0  0  0  0  0
  -10.3422   -2.9265  -23.4655 C   0  0  0  0  0  0  0  0  0  0  0  0
  -11.2479   -1.9192  -22.8211 Cl  0  0  0  0  0  0  0  0  0  0  0  0
   -8.9568   -3.1395  -22.9314 C   0  0  0  0  0  0  0  0  0  0  0  0
   -8.0513   -4.1468  -23.5758 C   0  0  0  0  0  0  0  0  0  0  0  0
   -6.6658   -4.3598  -23.0417 C   0  0  0  0  0  0  0  0  0  0  0  0
   -5.7603   -5.3671  -23.6861 C   0  0  0  0  0  0  0  0  0  0  0  0
   -6.5663   -6.7015  -25.6659 H   0  0  0  0  0  0  0  0  0  0  0  0
   -6.1860   -3.5654  -21.8632 C   0  0  0  0  0  0  0  0  0  0  0  0
   -5.3966   -4.2359  -20.7781 O   0  0  0  0  0  0  0  0  0  0  0  0
   -6.4956   -2.1008  -21.7698 N   0  0  0  0  0  0  0  0  0  0  0  0
   -7.0137   -1.6607  -22.4819 H   0  0  0  0  0  0  0  0  0  0  0  0
   -6.0158   -1.3064  -20.5913 C   0  0  0  0  0  0  0  0  0  0  0  0
   -6.6682   -1.4827  -19.2522 C   0  0  0  0  0  0  0  0  0  0  0  0
   -6.1884   -0.6884  -18.0737 N   0  0  0  0  0  0  0  0  0  0  0  0
   -5.0561    0.2822  -18.2343 C   0  0  0  0  0  0  0  0  0  0  0  0
   -4.4036    0.4586  -19.5735 C   0  0  0  0  0  0  0  0  0  0  0  0
   -3.2713    1.4292  -19.7341 C   0  0  0  0  0  0  0  0  0  0  0  0
   -2.6189    1.6054  -21.0731 C   0  0  0  0  0  0  0  0  0  0  0  0
   -3.0987    0.8111  -22.2516 C   0  0  0  0  0  0  0  0  0  0  0  0
   -4.2310   -0.1595  -22.0910 C   0  0  0  0  0  0  0  0  0  0  0  0
   -4.8834   -0.3358  -20.7519 C   0  0  0  0  0  0  0  0  0  0  0  0
   -5.3344   -7.1687  -25.5089 C   0  0  0  0  0  0  0  0  0  0  0  0
   -3.7041   -5.2736  -26.2163 O   0  0  0  0  0  0  0  0  0  0  0  0
   -4.0207   -6.7342  -26.0878 C   0  0  0  0  0  0  0  0  0  0  0  0
   -3.0235   -7.7601  -26.5382 N   0  0  0  0  0  0  0  0  0  0  0  0
   -3.2313   -8.7188  -26.4538 H   0  0  0  0  0  0  0  0  0  0  0  0
   -1.7097   -7.3256  -27.1171 C   0  0  0  0  0  0  0  0  0  0  0  0
   -0.4266   -7.7411  -26.4606 C   0  0  0  0  0  0  0  0  0  0  0  0
   -0.3890   -7.9979  -24.9833 C   0  0  0  0  0  0  0  0  0  0  0  0
   -0.4875   -9.4014  -24.4632 C   0  0  0  0  0  0  0  0  0  0  0  0
   -0.4499   -9.6582  -22.9858 C   0  0  0  0  0  0  0  0  0  0  0  0
   -0.3137   -8.5115  -22.0285 C   0  0  0  0  0  0  0  0  0  0  0  0
   -0.2152   -7.1079  -22.5485 C   0  0  0  0  0  0  0  0  0  0  0  0
   -0.2528   -6.8512  -24.0259 C   0  0  0  0  0  0  0  0  0  0  0  0
   -0.2761   -8.7682  -20.5510 C   0  0  0  0  0  0  0  0  0  0  0  0
    0.7071   -8.0352  -19.6872 F   0  0  0  0  0  0  0  0  0  0  0  0
   -1.2216   -9.7579  -19.9375 F   0  0  0  0  0  0  0  0  0  0  0  0
 28 29  2  0  0  0
 29 27  1  0  0  0
  1 27  1  0  0  0
  1  2  1  0  0  0
  2  3  1  0  0  0
  3  4  2  0  0  0
  4  5  1  0  0  0
  5  6  2  0  0  0
  6  7  1  0  0  0
  6  8  1  0  0  0
  8  9  2  0  0  0
  9 10  1  0  0  0
 10 13  1  0  0  0
 13 14  2  0  0  0
 13 15  1  0  0  0
 15 17  1  0  0  0
 17 18  2  0  0  0
 18 19  1  0  0  0
 19 20  2  0  0  0
 20 21  1  0  0  0
 21 22  2  0  0  0
 22 23  1  0  0  0
 23 24  2  0  0  0
 24 25  1  0  0  0
 25 26  2  0  0  0
 10 11  1  0  0  0
 29 30  1  0  0  0
 30 32  1  0  0  0
 32 33  1  0  0  0
 33 34  1  0  0  0
 34 35  2  0  0  0
 35 36  1  0  0  0
 36 37  2  0  0  0
 37 40  1  0  0  0
 40 41  1  0  0  0
 40 42  1  0  0  0
 37 38  1  0  0  0
 38 39  2  0  0  0
 11  1  1  0  0  0
 39 34  1  0  0  0
  9  3  1  0  0  0
 26 17  1  0  0  0
 26 21  1  0  0  0
  1 12  1  0  0  0
 15 16  1  0  0  0
 30 31  1  0  0  0
M  CHG 1   1   1
M  END
> <minimizedAffinity>
-8.65221

> <CNNscore>
0.6661788225

> <CNNaffinity>
6.6490707397

> <CNN_VS>
4.4294700623

> <CNNaffinity_variance>
0.2194534540

$$$$



 42 46  0  0  0  0  0  0  0  0999 V2000
   -7.8984   -5.8008  -25.0753 N   0  0  0  0  0  0  0  0  0  0  0  0
   -6.9255   -6.8129  -25.6037 C   0  0  0  0  0  0  0  0  0  0  0  0
   -5.5965   -6.9971  -24.9330 C   0  0  0  0  0  0  0  0  0  0  0  0
   -4.6236   -8.0092  -25.4614 C   0  0  0  0  0  0  0  0  0  0  0  0
   -3.2947   -8.1934  -24.7906 C   0  0  0  0  0  0  0  0  0  0  0  0
   -2.9386   -7.3656  -23.5915 C   0  0  0  0  0  0  0  0  0  0  0  0
   -1.6096   -7.5499  -22.9207 Cl  0  0  0  0  0  0  0  0  0  0  0  0
   -3.9115   -6.3536  -23.0631 C   0  0  0  0  0  0  0  0  0  0  0  0
   -5.2404   -6.1693  -23.7338 C   0  0  0  0  0  0  0  0  0  0  0  0
   -6.2134   -5.1572  -23.2054 C   0  0  0  0  0  0  0  0  0  0  0  0
   -7.5423   -4.9730  -23.8762 C   0  0  0  0  0  0  0  0  0  0  0  0
   -8.1405   -6.3637  -25.8907 H   0  0  0  0  0  0  0  0  0  0  0  0
   -5.8573   -4.3294  -22.0063 C   0  0  0  0  0  0  0  0  0  0  0  0
   -5.3564   -4.9939  -20.7582 O   0  0  0  0  0  0  0  0  0  0  0  0
   -6.0022   -2.8373  -22.0552 N   0  0  0  0  0  0  0  0  0  0  0  0
   -6.3310   -2.4012  -22.8743 H   0  0  0  0  0  0  0  0  0  0  0  0
   -5.6461   -2.0095  -20.8560 C   0  0  0  0  0  0  0  0  0  0  0  0
   -6.0585   -2.4584  -19.4855 C   0  0  0  0  0  0  0  0  0  0  0  0
   -5.7024   -1.6306  -18.2863 N   0  0  0  0  0  0  0  0  0  0  0  0
   -4.9340   -0.3539  -18.4577 C   0  0  0  0  0  0  0  0  0  0  0  0
   -4.5216    0.0952  -19.8283 C   0  0  0  0  0  0  0  0  0  0  0  0
   -3.7532    1.3719  -19.9997 C   0  0  0  0  0  0  0  0  0  0  0  0
   -3.3408    1.8208  -21.3702 C   0  0  0  0  0  0  0  0  0  0  0  0
   -3.6969    0.9930  -22.5694 C   0  0  0  0  0  0  0  0  0  0  0  0
   -4.4653   -0.2837  -22.3980 C   0  0  0  0  0  0  0  0  0  0  0  0
   -4.8777   -0.7327  -21.0275 C   0  0  0  0  0  0  0  0  0  0  0  0
   -9.2274   -5.6165  -25.7460 C   0  0  0  0  0  0  0  0  0  0  0  0
  -10.0298   -3.3555  -26.7429 O   0  0  0  0  0  0  0  0  0  0  0  0
   -9.9696   -4.3216  -25.5971 C   0  0  0  0  0  0  0  0  0  0  0  0
  -10.6515   -3.9927  -24.3022 N   0  0  0  0  0  0  0  0  0  0  0  0
  -10.6119   -4.6268  -23.5501 H   0  0  0  0  0  0  0  0  0  0  0  0
  -11.3937   -2.6977  -24.1531 C   0  0  0  0  0  0  0  0  0  0  0  0
  -10.7046   -1.5015  -23.5664 C   0  0  0  0  0  0  0  0  0  0  0  0
  -11.3607   -0.1540  -23.6259 C   0  0  0  0  0  0  0  0  0  0  0  0
  -12.8414   -0.0310  -23.4204 C   0  0  0  0  0  0  0  0  0  0  0  0
  -13.4975    1.3167  -23.4798 C   0  0  0  0  0  0  0  0  0  0  0  0
  -12.6728    2.5413  -23.7448 C   0  0  0  0  0  0  0  0  0  0  0  0
  -11.1921    2.4183  -23.9503 C   0  0  0  0  0  0  0  0  0  0  0  0
  -10.5360    1.0707  -23.8909 C   0  0  0  0  0  0  0  0  0  0  0  0
  -13.3289    3.8889  -23.8043 C   0  0  0  0  0  0  0  0  0  0  0  0
  -13.7013    4.5983  -22.5362 F   0  0  0  0  0  0  0  0  0  0  0  0
  -13.6125    4.5271  -25.1317 F   0  0  0  0  0  0  0  0  0  0  0  0
 28 29  2  0  0  0
 29 27  1  0  0  0
  1 27  1  0  0  0
  1  2  1  0  0  0
  2  3  1  0  0  0
  3  4  2  0  0  0
  4  5  1  0  0  0
  5  6  2  0  0  0
  6  7  1  0  0  0
  6  8  1  0  0  0
  8  9  2  0  0  0
  9 10  1  0  0  0
 10 13  1  0  0  0
 13 14  2  0  0  0
 13 15  1  0  0  0
 15 17  1  0  0  0
 17 18  2  0  0  0
 18 19  1  0  0  0
 19 20  2  0  0  0
 20 21  1  0  0  0
 21 22  2  0  0  0
 22 23  1  0  0  0
 23 24  2  0  0  0
 24 25  1  0  0  0
 25 26  2  0  0  0
 10 11  1  0  0  0
 29 30  1  0  0  0
 30 32  1  0  0  0
 32 33  1  0  0  0
 33 34  1  0  0  0
 34 35  2  0  0  0
 35 36  1  0  0  0
 36 37  2  0  0  0
 37 40  1  0  0  0
 40 41  1  0  0  0
 40 42  1  0  0  0
 37 38  1  0  0  0
 38 39  2  0  0  0
 11  1  1  0  0  0
 39 34  1  0  0  0
  9  3  1  0  0  0
 26 17  1  0  0  0
 26 21  1  0  0  0
  1 12  1  0  0  0
 15 16  1  0  0  0
 30 31  1  0  0  0
M  CHG 1   1   1
M  END
> <minimizedAffinity>
-9.06784

> <CNNscore>
0.5509203076

> <CNNaffinity>
6.5238976479

> <CNN_VS>
3.5941476822

> <CNNaffinity_variance>
0.4322424531

$$$$



 42 46  0  0  0  0  0  0  0  0999 V2000
   -7.5465   -2.0137  -26.9857 N   0  0  0  0  0  0  0  0  0  0  0  0
   -7.7149   -3.5002  -27.0944 C   0  0  0  0  0  0  0  0  0  0  0  0
   -7.6252   -4.3570  -25.8664 C   0  0  0  0  0  0  0  0  0  0  0  0
   -7.7936   -5.8435  -25.9751 C   0  0  0  0  0  0  0  0  0  0  0  0
   -7.7039   -6.7002  -24.7471 C   0  0  0  0  0  0  0  0  0  0  0  0
   -7.4458   -6.0704  -23.4104 C   0  0  0  0  0  0  0  0  0  0  0  0
   -7.3562   -6.9272  -22.1824 Cl  0  0  0  0  0  0  0  0  0  0  0  0
   -7.2775   -4.5839  -23.3017 C   0  0  0  0  0  0  0  0  0  0  0  0
   -7.3671   -3.7272  -24.5297 C   0  0  0  0  0  0  0  0  0  0  0  0
   -7.1988   -2.2406  -24.4210 C   0  0  0  0  0  0  0  0  0  0  0  0
   -7.2884   -1.3839  -25.6490 C   0  0  0  0  0  0  0  0  0  0  0  0
   -7.7220   -2.4420  -27.8946 H   0  0  0  0  0  0  0  0  0  0  0  0
   -6.9407   -1.6108  -23.0843 C   0  0  0  0  0  0  0  0  0  0  0  0
   -7.9318   -0.6442  -22.5068 O   0  0  0  0  0  0  0  0  0  0  0  0
   -5.6917   -1.9475  -22.3251 N   0  0  0  0  0  0  0  0  0  0  0  0
   -5.0412   -2.5819  -22.7042 H   0  0  0  0  0  0  0  0  0  0  0  0
   -5.4336   -1.3177  -20.9885 C   0  0  0  0  0  0  0  0  0  0  0  0
   -6.0992   -1.8648  -19.7606 C   0  0  0  0  0  0  0  0  0  0  0  0
   -5.8411   -1.2349  -18.4239 N   0  0  0  0  0  0  0  0  0  0  0  0
   -4.9175   -0.0581  -18.3151 C   0  0  0  0  0  0  0  0  0  0  0  0
   -4.2519    0.4890  -19.5430 C   0  0  0  0  0  0  0  0  0  0  0  0
   -3.3282    1.6659  -19.4342 C   0  0  0  0  0  0  0  0  0  0  0  0
   -2.6627    2.2129  -20.6620 C   0  0  0  0  0  0  0  0  0  0  0  0
   -2.9207    1.5831  -21.9987 C   0  0  0  0  0  0  0  0  0  0  0  0
   -3.8443    0.4062  -22.1075 C   0  0  0  0  0  0  0  0  0  0  0  0
   -4.5099   -0.1408  -20.8797 C   0  0  0  0  0  0  0  0  0  0  0  0
   -7.6362   -1.1569  -28.2137 C   0  0  0  0  0  0  0  0  0  0  0  0
   -5.8714    0.6638  -28.7799 O   0  0  0  0  0  0  0  0  0  0  0  0
   -7.1828    0.2721  -28.1659 C   0  0  0  0  0  0  0  0  0  0  0  0
   -8.0407    1.3094  -27.5042 N   0  0  0  0  0  0  0  0  0  0  0  0
   -8.9013    1.0522  -27.1012 H   0  0  0  0  0  0  0  0  0  0  0  0
   -7.5873    2.7385  -27.4564 C   0  0  0  0  0  0  0  0  0  0  0  0
   -8.4392    3.7735  -26.7835 C   0  0  0  0  0  0  0  0  0  0  0  0
   -9.4856    3.3553  -25.7934 C   0  0  0  0  0  0  0  0  0  0  0  0
   -9.3013    2.1008  -24.9921 C   0  0  0  0  0  0  0  0  0  0  0  0
  -10.3478    1.6827  -24.0021 C   0  0  0  0  0  0  0  0  0  0  0  0
  -11.5785    2.5191  -23.8133 C   0  0  0  0  0  0  0  0  0  0  0  0
  -11.7628    3.7737  -24.6147 C   0  0  0  0  0  0  0  0  0  0  0  0
  -10.7164    4.1918  -25.6047 C   0  0  0  0  0  0  0  0  0  0  0  0
  -12.6250    2.1010  -22.8233 C   0  0  0  0  0  0  0  0  0  0  0  0
  -13.2445    0.7382  -22.9174 F   0  0  0  0  0  0  0  0  0  0  0  0
  -13.0518    3.0457  -21.7392 F   0  0  0  0  0  0  0  0  0  0  0  0
 28 29  2  0  0  0
 29 27  1  0  0  0
  1 27  1  0  0  0
  1  2  1  0  0  0
  2  3  1  0  0  0
  3  4  2  0  0  0
  4  5  1  0  0  0
  5  6  2  0  0  0
  6  7  1  0  0  0
  6  8  1  0  0  0
  8  9  2  0  0  0
  9 10  1  0  0  0
 10 13  1  0  0  0
 13 14  2  0  0  0
 13 15  1  0  0  0
 15 17  1  0  0  0
 17 18  2  0  0  0
 18 19  1  0  0  0
 19 20  2  0  0  0
 20 21  1  0  0  0
 21 22  2  0  0  0
 22 23  1  0  0  0
 23 24  2  0  0  0
 24 25  1  0  0  0
 25 26  2  0  0  0
 10 11  1  0  0  0
 29 30  1  0  0  0
 30 32  1  0  0  0
 32 33  1  0  0  0
 33 34  1  0  0  0
 34 35  2  0  0  0
 35 36  1  0  0  0
 36 37  2  0  0  0
 37 40  1  0  0  0
 40 41  1  0  0  0
 40 42  1  0  0  0
 37 38  1  0  0  0
 38 39  2  0  0  0
 11  1  1  0  0  0
 39 34  1  0  0  0
  9  3  1  0  0  0
 26 17  1  0  0  0
 26 21  1  0  0  0
  1 12  1  0  0  0
 15 16  1  0  0  0
 30 31  1  0  0  0
M  CHG 1   1   1
M  END
> <minimizedAffinity>
-7.89427

> <CNNscore>
0.2347696126

> <CNNaffinity>
5.9135527611

> <CNN_VS>
1.3883224726

> <CNNaffinity_variance>
0.4836404920

$$$$



 42 46  0  0  0  0  0  0  0  0999 V2000
   -9.4111   -4.2279  -24.2883 N   0  0  0  0  0  0  0  0  0  0  0  0
   -8.7576   -5.3875  -24.9798 C   0  0  0  0  0  0  0  0  0  0  0  0
   -7.3665   -5.8005  -24.5995 C   0  0  0  0  0  0  0  0  0  0  0  0
   -6.7130   -6.9601  -25.2909 C   0  0  0  0  0  0  0  0  0  0  0  0
   -5.3220   -7.3730  -24.9107 C   0  0  0  0  0  0  0  0  0  0  0  0
   -4.5846   -6.6262  -23.8389 C   0  0  0  0  0  0  0  0  0  0  0  0
   -3.1935   -7.0392  -23.4587 Cl  0  0  0  0  0  0  0  0  0  0  0  0
   -5.2381   -5.4666  -23.1475 C   0  0  0  0  0  0  0  0  0  0  0  0
   -6.6291   -5.0537  -23.5278 C   0  0  0  0  0  0  0  0  0  0  0  0
   -7.2827   -3.8941  -22.8363 C   0  0  0  0  0  0  0  0  0  0  0  0
   -8.6737   -3.4812  -23.2166 C   0  0  0  0  0  0  0  0  0  0  0  0
   -9.9126   -4.7357  -25.0171 H   0  0  0  0  0  0  0  0  0  0  0  0
   -6.5453   -3.1473  -21.7646 C   0  0  0  0  0  0  0  0  0  0  0  0
   -5.4695   -3.8343  -20.9765 O   0  0  0  0  0  0  0  0  0  0  0  0
   -6.8835   -1.7138  -21.4810 N   0  0  0  0  0  0  0  0  0  0  0  0
   -7.5895   -1.2630  -21.9983 H   0  0  0  0  0  0  0  0  0  0  0  0
   -6.1461   -0.9671  -20.4093 C   0  0  0  0  0  0  0  0  0  0  0  0
   -6.6140   -1.0410  -18.9861 C   0  0  0  0  0  0  0  0  0  0  0  0
   -5.8766   -0.2942  -17.9144 N   0  0  0  0  0  0  0  0  0  0  0  0
   -4.6712    0.5264  -18.2658 C   0  0  0  0  0  0  0  0  0  0  0  0
   -4.2031    0.6003  -19.6891 C   0  0  0  0  0  0  0  0  0  0  0  0
   -2.9977    1.4209  -20.0405 C   0  0  0  0  0  0  0  0  0  0  0  0
   -2.5298    1.4947  -21.4637 C   0  0  0  0  0  0  0  0  0  0  0  0
   -3.2672    0.7480  -22.5354 C   0  0  0  0  0  0  0  0  0  0  0  0
   -4.4726   -0.0726  -22.1840 C   0  0  0  0  0  0  0  0  0  0  0  0
   -4.9406   -0.1464  -20.7608 C   0  0  0  0  0  0  0  0  0  0  0  0
  -10.8021   -3.8149  -24.6686 C   0  0  0  0  0  0  0  0  0  0  0  0
  -12.3475   -3.1887  -22.6763 O   0  0  0  0  0  0  0  0  0  0  0  0
  -11.5239   -2.7776  -23.8606 C   0  0  0  0  0  0  0  0  0  0  0  0
  -11.4219   -1.3292  -24.2368 N   0  0  0  0  0  0  0  0  0  0  0  0
  -10.8813   -1.0594  -25.0141 H   0  0  0  0  0  0  0  0  0  0  0  0
  -12.1436   -0.2917  -23.4288 C   0  0  0  0  0  0  0  0  0  0  0  0
  -11.4317    0.9593  -23.0068 C   0  0  0  0  0  0  0  0  0  0  0  0
  -11.8421    2.2844  -23.5773 C   0  0  0  0  0  0  0  0  0  0  0  0
  -13.2966    2.6126  -23.7408 C   0  0  0  0  0  0  0  0  0  0  0  0
  -13.7069    3.9378  -24.3114 C   0  0  0  0  0  0  0  0  0  0  0  0
  -12.6628    4.9348  -24.7184 C   0  0  0  0  0  0  0  0  0  0  0  0
  -11.2083    4.6067  -24.5549 C   0  0  0  0  0  0  0  0  0  0  0  0
  -10.7979    3.2815  -23.9844 C   0  0  0  0  0  0  0  0  0  0  0  0
  -13.0731    6.2600  -25.2890 C   0  0  0  0  0  0  0  0  0  0  0  0
  -12.5330    6.7049  -26.6158 F   0  0  0  0  0  0  0  0  0  0  0  0
  -14.0234    7.1403  -24.5328 F   0  0  0  0  0  0  0  0  0  0  0  0
 28 29  2  0  0  0
 29 27  1  0  0  0
  1 27  1  0  0  0
  1  2  1  0  0  0
  2  3  1  0  0  0
  3  4  2  0  0  0
  4  5  1  0  0  0
  5  6  2  0  0  0
  6  7  1  0  0  0
  6  8  1  0  0  0
  8  9  2  0  0  0
  9 10  1  0  0  0
 10 13  1  0  0  0
 13 14  2  0  0  0
 13 15  1  0  0  0
 15 17  1  0  0  0
 17 18  2  0  0  0
 18 19  1  0  0  0
 19 20  2  0  0  0
 20 21  1  0  0  0
 21 22  2  0  0  0
 22 23  1  0  0  0
 23 24  2  0  0  0
 24 25  1  0  0  0
 25 26  2  0  0  0
 10 11  1  0  0  0
 29 30  1  0  0  0
 30 32  1  0  0  0
 32 33  1  0  0  0
 33 34  1  0  0  0
 34 35  2  0  0  0
 35 36  1  0  0  0
 36 37  2  0  0  0
 37 40  1  0  0  0
 40 41  1  0  0  0
 40 42  1  0  0  0
 37 38  1  0  0  0
 38 39  2  0  0  0
 11  1  1  0  0  0
 39 34  1  0  0  0
  9  3  1  0  0  0
 26 17  1  0  0  0
 26 21  1  0  0  0
  1 12  1  0  0  0
 15 16  1  0  0  0
 30 31  1  0  0  0
M  CHG 1   1   1
M  END
> <minimizedAffinity>
-9.03095

> <CNNscore>
0.2238395959

> <CNNaffinity>
6.1745343208

> <CNN_VS>
1.3821052313

> <CNNaffinity_variance>
0.1814223826

$$$$



 42 46  0  0  0  0  0  0  0  0999 V2000
   -6.9460   -1.3466  -22.0312 N   0  0  0  0  0  0  0  0  0  0  0  0
   -8.1873   -2.1802  -21.9129 C   0  0  0  0  0  0  0  0  0  0  0  0
   -9.4873   -1.6720  -22.4624 C   0  0  0  0  0  0  0  0  0  0  0  0
  -10.7287   -2.5056  -22.3442 C   0  0  0  0  0  0  0  0  0  0  0  0
  -12.0285   -1.9973  -22.8937 C   0  0  0  0  0  0  0  0  0  0  0  0
  -12.0870   -0.6554  -23.5614 C   0  0  0  0  0  0  0  0  0  0  0  0
  -13.3870   -0.1471  -24.1108 Cl  0  0  0  0  0  0  0  0  0  0  0  0
  -10.8456    0.1783  -23.6796 C   0  0  0  0  0  0  0  0  0  0  0  0
   -9.5458   -0.3300  -23.1301 C   0  0  0  0  0  0  0  0  0  0  0  0
   -8.3043    0.5036  -23.2483 C   0  0  0  0  0  0  0  0  0  0  0  0
   -7.0045   -0.0047  -22.6989 C   0  0  0  0  0  0  0  0  0  0  0  0
   -6.9062   -2.2591  -21.5771 H   0  0  0  0  0  0  0  0  0  0  0  0
   -8.3628    1.8455  -23.9160 C   0  0  0  0  0  0  0  0  0  0  0  0
   -7.6512    2.0672  -25.2178 O   0  0  0  0  0  0  0  0  0  0  0  0
   -9.1328    2.9658  -23.2820 N   0  0  0  0  0  0  0  0  0  0  0  0
   -9.5999    2.8203  -22.4276 H   0  0  0  0  0  0  0  0  0  0  0  0
   -9.1913    4.3077  -23.9497 C   0  0  0  0  0  0  0  0  0  0  0  0
  -10.2144    4.5717  -25.0144 C   0  0  0  0  0  0  0  0  0  0  0  0
  -10.2728    5.9136  -25.6821 N   0  0  0  0  0  0  0  0  0  0  0  0
   -9.3083    6.9916  -25.2851 C   0  0  0  0  0  0  0  0  0  0  0  0
   -8.2852    6.7276  -24.2203 C   0  0  0  0  0  0  0  0  0  0  0  0
   -7.3207    7.8056  -23.8233 C   0  0  0  0  0  0  0  0  0  0  0  0
   -6.2977    7.5416  -22.7585 C   0  0  0  0  0  0  0  0  0  0  0  0
   -6.2392    6.1997  -22.0908 C   0  0  0  0  0  0  0  0  0  0  0  0
   -7.2037    5.1217  -22.4879 C   0  0  0  0  0  0  0  0  0  0  0  0
   -8.2268    5.3857  -23.5526 C   0  0  0  0  0  0  0  0  0  0  0  0
   -5.6460   -1.8549  -21.4817 C   0  0  0  0  0  0  0  0  0  0  0  0
   -5.1210   -3.6733  -19.7019 O   0  0  0  0  0  0  0  0  0  0  0  0
   -5.5056   -3.2994  -21.1027 C   0  0  0  0  0  0  0  0  0  0  0  0
   -5.7497   -4.3700  -22.1246 N   0  0  0  0  0  0  0  0  0  0  0  0
   -6.0021   -4.1245  -23.0440 H   0  0  0  0  0  0  0  0  0  0  0  0
   -5.6092   -5.8145  -21.7456 C   0  0  0  0  0  0  0  0  0  0  0  0
   -5.4705   -6.8597  -22.8125 C   0  0  0  0  0  0  0  0  0  0  0  0
   -6.3075   -6.7791  -24.0546 C   0  0  0  0  0  0  0  0  0  0  0  0
   -7.8039   -6.7743  -23.9517 C   0  0  0  0  0  0  0  0  0  0  0  0
   -8.6409   -6.6937  -25.1939 C   0  0  0  0  0  0  0  0  0  0  0  0
   -7.9814   -6.6180  -26.5390 C   0  0  0  0  0  0  0  0  0  0  0  0
   -6.4850   -6.6228  -26.6420 C   0  0  0  0  0  0  0  0  0  0  0  0
   -5.6480   -6.7034  -25.3998 C   0  0  0  0  0  0  0  0  0  0  0  0
   -8.8184   -6.5374  -27.7812 C   0  0  0  0  0  0  0  0  0  0  0  0
  -10.2572   -6.1233  -27.6906 F   0  0  0  0  0  0  0  0  0  0  0  0
   -8.2165   -6.8709  -29.1141 F   0  0  0  0  0  0  0  0  0  0  0  0
 28 29  2  0  0  0
 29 27  1  0  0  0
  1 27  1  0  0  0
  1  2  1  0  0  0
  2  3  1  0  0  0
  3  4  2  0  0  0
  4  5  1  0  0  0
  5  6  2  0  0  0
  6  7  1  0  0  0
  6  8  1  0  0  0
  8  9  2  0  0  0
  9 10  1  0  0  0
 10 13  1  0  0  0
 13 14  2  0  0  0
 13 15  1  0  0  0
 15 17  1  0  0  0
 17 18  2  0  0  0
 18 19  1  0  0  0
 19 20  2  0  0  0
 20 21  1  0  0  0
 21 22  2  0  0  0
 22 23  1  0  0  0
 23 24  2  0  0  0
 24 25  1  0  0  0
 25 26  2  0  0  0
 10 11  1  0  0  0
 29 30  1  0  0  0
 30 32  1  0  0  0
 32 33  1  0  0  0
 33 34  1  0  0  0
 34 35  2  0  0  0
 35 36  1  0  0  0
 36 37  2  0  0  0
 37 40  1  0  0  0
 40 41  1  0  0  0
 40 42  1  0  0  0
 37 38  1  0  0  0
 38 39  2  0  0  0
 11  1  1  0  0  0
 39 34  1  0  0  0
  9  3  1  0  0  0
 26 17  1  0  0  0
 26 21  1  0  0  0
  1 12  1  0  0  0
 15 16  1  0  0  0
 30 31  1  0  0  0
M  CHG 1   1   1
M  END
> <minimizedAffinity>
-8.44398

> <CNNscore>
0.1773724258

> <CNNaffinity>
5.7007150650

> <CNN_VS>
1.0111496449

> <CNNaffinity_variance>
0.9081254005

$$$$



 42 46  0  0  0  0  0  0  0  0999 V2000
   -6.1008   -1.0429  -21.9801 N   0  0  0  0  0  0  0  0  0  0  0  0
   -5.0792   -0.9100  -23.0703 C   0  0  0  0  0  0  0  0  0  0  0  0
   -5.4537   -0.2725  -24.3755 C   0  0  0  0  0  0  0  0  0  0  0  0
   -4.4321   -0.1396  -25.4657 C   0  0  0  0  0  0  0  0  0  0  0  0
   -4.8067    0.4978  -26.7708 C   0  0  0  0  0  0  0  0  0  0  0  0
   -6.2028    1.0022  -26.9858 C   0  0  0  0  0  0  0  0  0  0  0  0
   -6.5774    1.6396  -28.2910 Cl  0  0  0  0  0  0  0  0  0  0  0  0
   -7.2245    0.8693  -25.8956 C   0  0  0  0  0  0  0  0  0  0  0  0
   -6.8499    0.2319  -24.5905 C   0  0  0  0  0  0  0  0  0  0  0  0
   -7.8716    0.0989  -23.5002 C   0  0  0  0  0  0  0  0  0  0  0  0
   -7.4970   -0.5385  -22.1951 C   0  0  0  0  0  0  0  0  0  0  0  0
   -5.1514   -1.3859  -21.8339 H   0  0  0  0  0  0  0  0  0  0  0  0
   -9.2678    0.6033  -23.7152 C   0  0  0  0  0  0  0  0  0  0  0  0
  -10.3000   -0.2890  -24.3384 O   0  0  0  0  0  0  0  0  0  0  0  0
   -9.6318    2.0000  -23.3069 N   0  0  0  0  0  0  0  0  0  0  0  0
   -8.9544    2.5856  -22.8979 H   0  0  0  0  0  0  0  0  0  0  0  0
  -11.0280    2.5044  -23.5219 C   0  0  0  0  0  0  0  0  0  0  0  0
  -12.1281    2.0858  -22.5922 C   0  0  0  0  0  0  0  0  0  0  0  0
  -13.5243    2.5902  -22.8071 N   0  0  0  0  0  0  0  0  0  0  0  0
  -13.8204    3.5132  -23.9518 C   0  0  0  0  0  0  0  0  0  0  0  0
  -12.7202    3.9319  -24.8815 C   0  0  0  0  0  0  0  0  0  0  0  0
  -13.0163    4.8550  -26.0262 C   0  0  0  0  0  0  0  0  0  0  0  0
  -11.9161    5.2737  -26.9559 C   0  0  0  0  0  0  0  0  0  0  0  0
  -10.5199    4.7692  -26.7409 C   0  0  0  0  0  0  0  0  0  0  0  0
  -10.2239    3.8462  -25.5963 C   0  0  0  0  0  0  0  0  0  0  0  0
  -11.3240    3.4275  -24.6666 C   0  0  0  0  0  0  0  0  0  0  0  0
   -5.7263   -1.6803  -20.6749 C   0  0  0  0  0  0  0  0  0  0  0  0
   -5.1378   -3.8013  -19.2946 O   0  0  0  0  0  0  0  0  0  0  0  0
   -5.5601   -3.1685  -20.5874 C   0  0  0  0  0  0  0  0  0  0  0  0
   -5.8161   -4.0239  -21.7927 N   0  0  0  0  0  0  0  0  0  0  0  0
   -6.0933   -3.6085  -22.6412 H   0  0  0  0  0  0  0  0  0  0  0  0
   -5.6499   -5.5121  -21.7052 C   0  0  0  0  0  0  0  0  0  0  0  0
   -5.3025   -6.3014  -22.9325 C   0  0  0  0  0  0  0  0  0  0  0  0
   -6.2508   -6.3378  -24.0941 C   0  0  0  0  0  0  0  0  0  0  0  0
   -5.7547   -6.7258  -25.4555 C   0  0  0  0  0  0  0  0  0  0  0  0
   -6.7032   -6.7623  -26.6171 C   0  0  0  0  0  0  0  0  0  0  0  0
   -8.1476   -6.4108  -26.4172 C   0  0  0  0  0  0  0  0  0  0  0  0
   -8.6437   -6.0228  -25.0558 C   0  0  0  0  0  0  0  0  0  0  0  0
   -7.6954   -5.9863  -23.8943 C   0  0  0  0  0  0  0  0  0  0  0  0
   -9.0961   -6.4473  -27.5788 C   0  0  0  0  0  0  0  0  0  0  0  0
   -8.5638   -6.4862  -28.9807 F   0  0  0  0  0  0  0  0  0  0  0  0
  -10.5767   -6.4448  -27.3385 F   0  0  0  0  0  0  0  0  0  0  0  0
 28 29  2  0  0  0
 29 27  1  0  0  0
  1 27  1  0  0  0
  1  2  1  0  0  0
  2  3  1  0  0  0
  3  4  2  0  0  0
  4  5  1  0  0  0
  5  6  2  0  0  0
  6  7  1  0  0  0
  6  8  1  0  0  0
  8  9  2  0  0  0
  9 10  1  0  0  0
 10 13  1  0  0  0
 13 14  2  0  0  0
 13 15  1  0  0  0
 15 17  1  0  0  0
 17 18  2  0  0  0
 18 19  1  0  0  0
 19 20  2  0  0  0
 20 21  1  0  0  0
 21 22  2  0  0  0
 22 23  1  0  0  0
 23 24  2  0  0  0
 24 25  1  0  0  0
 25 26  2  0  0  0
 10 11  1  0  0  0
 29 30  1  0  0  0
 30 32  1  0  0  0
 32 33  1  0  0  0
 33 34  1  0  0  0
 34 35  2  0  0  0
 35 36  1  0  0  0
 36 37  2  0  0  0
 37 40  1  0  0  0
 40 41  1  0  0  0
 40 42  1  0  0  0
 37 38  1  0  0  0
 38 39  2  0  0  0
 11  1  1  0  0  0
 39 34  1  0  0  0
  9  3  1  0  0  0
 26 17  1  0  0  0
 26 21  1  0  0  0
  1 12  1  0  0  0
 15 16  1  0  0  0
 30 31  1  0  0  0
M  CHG 1   1   1
M  END
> <minimizedAffinity>
-8.19428

> <CNNscore>
0.1664741188

> <CNNaffinity>
5.6166229248

> <CNN_VS>
0.9350223541

> <CNNaffinity_variance>
0.8340555429

$$$$



 42 46  0  0  0  0  0  0  0  0999 V2000
   -6.9121   -1.3829  -21.6861 N   0  0  0  0  0  0  0  0  0  0  0  0
   -8.1250   -2.2633  -21.7457 C   0  0  0  0  0  0  0  0  0  0  0  0
   -9.4080   -1.7350  -22.3157 C   0  0  0  0  0  0  0  0  0  0  0  0
  -10.6209   -2.6154  -22.3753 C   0  0  0  0  0  0  0  0  0  0  0  0
  -11.9038   -2.0871  -22.9453 C   0  0  0  0  0  0  0  0  0  0  0  0
  -11.9738   -0.6784  -23.4557 C   0  0  0  0  0  0  0  0  0  0  0  0
  -13.2569   -0.1500  -24.0257 Cl  0  0  0  0  0  0  0  0  0  0  0  0
  -10.7609    0.2021  -23.3961 C   0  0  0  0  0  0  0  0  0  0  0  0
   -9.4780   -0.3262  -22.8261 C   0  0  0  0  0  0  0  0  0  0  0  0
   -8.2650    0.5542  -22.7665 C   0  0  0  0  0  0  0  0  0  0  0  0
   -6.9820    0.0259  -22.1965 C   0  0  0  0  0  0  0  0  0  0  0  0
   -6.8644   -2.3408  -21.3391 H   0  0  0  0  0  0  0  0  0  0  0  0
   -8.3350    1.9629  -23.2769 C   0  0  0  0  0  0  0  0  0  0  0  0
   -7.3890    3.0001  -22.7481 O   0  0  0  0  0  0  0  0  0  0  0  0
   -9.3508    2.3346  -24.3161 N   0  0  0  0  0  0  0  0  0  0  0  0
   -9.9716    1.6538  -24.6632 H   0  0  0  0  0  0  0  0  0  0  0  0
   -9.4208    3.7433  -24.8265 C   0  0  0  0  0  0  0  0  0  0  0  0
   -9.7147    4.8699  -23.8808 C   0  0  0  0  0  0  0  0  0  0  0  0
   -9.7847    6.2787  -24.3913 N   0  0  0  0  0  0  0  0  0  0  0  0
   -9.5608    6.5608  -25.8473 C   0  0  0  0  0  0  0  0  0  0  0  0
   -9.2669    5.4342  -26.7931 C   0  0  0  0  0  0  0  0  0  0  0  0
   -9.0429    5.7163  -28.2492 C   0  0  0  0  0  0  0  0  0  0  0  0
   -8.7490    4.5897  -29.1948 C   0  0  0  0  0  0  0  0  0  0  0  0
   -8.6790    3.1810  -28.6844 C   0  0  0  0  0  0  0  0  0  0  0  0
   -8.9029    2.8988  -27.2283 C   0  0  0  0  0  0  0  0  0  0  0  0
   -9.1969    4.0254  -26.2827 C   0  0  0  0  0  0  0  0  0  0  0  0
   -5.6290   -1.9112  -21.1161 C   0  0  0  0  0  0  0  0  0  0  0  0
   -5.1783   -3.7903  -19.3796 O   0  0  0  0  0  0  0  0  0  0  0  0
   -5.5003   -3.3679  -20.7824 C   0  0  0  0  0  0  0  0  0  0  0  0
   -5.6935   -4.4021  -21.8514 N   0  0  0  0  0  0  0  0  0  0  0  0
   -5.9048   -4.1249  -22.7721 H   0  0  0  0  0  0  0  0  0  0  0  0
   -5.5647   -5.8589  -21.5177 C   0  0  0  0  0  0  0  0  0  0  0  0
   -6.4573   -6.8629  -22.1849 C   0  0  0  0  0  0  0  0  0  0  0  0
   -6.6893   -6.7935  -23.6652 C   0  0  0  0  0  0  0  0  0  0  0  0
   -8.0489   -6.4475  -24.1959 C   0  0  0  0  0  0  0  0  0  0  0  0
   -8.2808   -6.3781  -25.6763 C   0  0  0  0  0  0  0  0  0  0  0  0
   -7.1531   -6.6546  -26.6258 C   0  0  0  0  0  0  0  0  0  0  0  0
   -5.7935   -7.0005  -26.0951 C   0  0  0  0  0  0  0  0  0  0  0  0
   -5.5615   -7.0700  -24.6148 C   0  0  0  0  0  0  0  0  0  0  0  0
   -7.3850   -6.5851  -28.1062 C   0  0  0  0  0  0  0  0  0  0  0  0
   -6.2274   -6.3805  -29.0379 F   0  0  0  0  0  0  0  0  0  0  0  0
   -8.7745   -6.7203  -28.6549 F   0  0  0  0  0  0  0  0  0  0  0  0
 28 29  2  0  0  0
 29 27  1  0  0  0
  1 27  1  0  0  0
  1  2  1  0  0  0
  2  3  1  0  0  0
  3  4  2  0  0  0
  4  5  1  0  0  0
  5  6  2  0  0  0
  6  7  1  0  0  0
  6  8  1  0  0  0
  8  9  2  0  0  0
  9 10  1  0  0  0
 10 13  1  0  0  0
 13 14  2  0  0  0
 13 15  1  0  0  0
 15 17  1  0  0  0
 17 18  2  0  0  0
 18 19  1  0  0  0
 19 20  2  0  0  0
 20 21  1  0  0  0
 21 22  2  0  0  0
 22 23  1  0  0  0
 23 24  2  0  0  0
 24 25  1  0  0  0
 25 26  2  0  0  0
 10 11  1  0  0  0
 29 30  1  0  0  0
 30 32  1  0  0  0
 32 33  1  0  0  0
 33 34  1  0  0  0
 34 35  2  0  0  0
 35 36  1  0  0  0
 36 37  2  0  0  0
 37 40  1  0  0  0
 40 41  1  0  0  0
 40 42  1  0  0  0
 37 38  1  0  0  0
 38 39  2  0  0  0
 11  1  1  0  0  0
 39 34  1  0  0  0
  9  3  1  0  0  0
 26 17  1  0  0  0
 26 21  1  0  0  0
  1 12  1  0  0  0
 15 16  1  0  0  0
 30 31  1  0  0  0
M  CHG 1   1   1
M  END
> <minimizedAffinity>
-8.01842

> <CNNscore>
0.1316065639

> <CNNaffinity>
5.6810545921

> <CNN_VS>
0.7476640940

> <CNNaffinity_variance>
0.5797762275

$$$$



 42 46  0  0  0  0  0  0  0  0999 V2000
   -6.9234   -1.3737  -21.7528 N   0  0  0  0  0  0  0  0  0  0  0  0
   -8.1766   -2.1980  -21.7477 C   0  0  0  0  0  0  0  0  0  0  0  0
   -9.4260   -1.6673  -22.3860 C   0  0  0  0  0  0  0  0  0  0  0  0
  -10.6792   -2.4916  -22.3809 C   0  0  0  0  0  0  0  0  0  0  0  0
  -11.9285   -1.9609  -23.0191 C   0  0  0  0  0  0  0  0  0  0  0  0
  -11.9247   -0.6058  -23.6625 C   0  0  0  0  0  0  0  0  0  0  0  0
  -13.1742   -0.0751  -24.3008 Cl  0  0  0  0  0  0  0  0  0  0  0  0
  -10.6716    0.2184  -23.6676 C   0  0  0  0  0  0  0  0  0  0  0  0
   -9.4222   -0.3123  -23.0294 C   0  0  0  0  0  0  0  0  0  0  0  0
   -8.1690    0.5120  -23.0345 C   0  0  0  0  0  0  0  0  0  0  0  0
   -6.9196   -0.0187  -22.3962 C   0  0  0  0  0  0  0  0  0  0  0  0
   -6.9260   -2.2951  -21.3154 H   0  0  0  0  0  0  0  0  0  0  0  0
   -8.1652    1.8671  -23.6778 C   0  0  0  0  0  0  0  0  0  0  0  0
   -7.3181    2.1194  -24.8898 O   0  0  0  0  0  0  0  0  0  0  0  0
   -9.0083    2.9696  -23.1092 N   0  0  0  0  0  0  0  0  0  0  0  0
   -9.5642    2.8040  -22.3138 H   0  0  0  0  0  0  0  0  0  0  0  0
   -9.0045    4.3247  -23.7526 C   0  0  0  0  0  0  0  0  0  0  0  0
   -7.7927    5.2021  -23.6459 C   0  0  0  0  0  0  0  0  0  0  0  0
   -7.7888    6.5571  -24.2893 N   0  0  0  0  0  0  0  0  0  0  0  0
   -8.9969    7.0347  -25.0393 C   0  0  0  0  0  0  0  0  0  0  0  0
  -10.2088    6.1572  -25.1460 C   0  0  0  0  0  0  0  0  0  0  0  0
  -11.4169    6.6347  -25.8960 C   0  0  0  0  0  0  0  0  0  0  0  0
  -12.6287    5.7573  -26.0026 C   0  0  0  0  0  0  0  0  0  0  0  0
  -12.6325    4.4023  -25.3592 C   0  0  0  0  0  0  0  0  0  0  0  0
  -11.4245    3.9247  -24.6093 C   0  0  0  0  0  0  0  0  0  0  0  0
  -10.2126    4.8022  -24.5026 C   0  0  0  0  0  0  0  0  0  0  0  0
   -5.6740   -1.9044  -21.1146 C   0  0  0  0  0  0  0  0  0  0  0  0
   -5.2539   -3.9354  -19.5498 O   0  0  0  0  0  0  0  0  0  0  0  0
   -5.4994   -3.3817  -20.9221 C   0  0  0  0  0  0  0  0  0  0  0  0
   -5.5702   -4.3052  -22.1019 N   0  0  0  0  0  0  0  0  0  0  0  0
   -5.7313   -3.9418  -23.0026 H   0  0  0  0  0  0  0  0  0  0  0  0
   -5.3956   -5.7826  -21.9095 C   0  0  0  0  0  0  0  0  0  0  0  0
   -5.2122   -6.6774  -23.0992 C   0  0  0  0  0  0  0  0  0  0  0  0
   -6.1718   -6.6018  -24.2496 C   0  0  0  0  0  0  0  0  0  0  0  0
   -5.6663   -6.7186  -25.6570 C   0  0  0  0  0  0  0  0  0  0  0  0
   -6.6261   -6.6429  -26.8073 C   0  0  0  0  0  0  0  0  0  0  0  0
   -8.0912   -6.4504  -26.5502 C   0  0  0  0  0  0  0  0  0  0  0  0
   -8.5968   -6.3335  -25.1428 C   0  0  0  0  0  0  0  0  0  0  0  0
   -7.6371   -6.4092  -23.9925 C   0  0  0  0  0  0  0  0  0  0  0  0
   -9.0510   -6.3747  -27.7006 C   0  0  0  0  0  0  0  0  0  0  0  0
  -10.3539   -5.6482  -27.5437 F   0  0  0  0  0  0  0  0  0  0  0  0
   -8.7078   -7.0255  -29.0077 F   0  0  0  0  0  0  0  0  0  0  0  0
 28 29  2  0  0  0
 29 27  1  0  0  0
  1 27  1  0  0  0
  1  2  1  0  0  0
  2  3  1  0  0  0
  3  4  2  0  0  0
  4  5  1  0  0  0
  5  6  2  0  0  0
  6  7  1  0  0  0
  6  8  1  0  0  0
  8  9  2  0  0  0
  9 10  1  0  0  0
 10 13  1  0  0  0
 13 14  2  0  0  0
 13 15  1  0  0  0
 15 17  1  0  0  0
 17 18  2  0  0  0
 18 19  1  0  0  0
 19 20  2  0  0  0
 20 21  1  0  0  0
 21 22  2  0  0  0
 22 23  1  0  0  0
 23 24  2  0  0  0
 24 25  1  0  0  0
 25 26  2  0  0  0
 10 11  1  0  0  0
 29 30  1  0  0  0
 30 32  1  0  0  0
 32 33  1  0  0  0
 33 34  1  0  0  0
 34 35  2  0  0  0
 35 36  1  0  0  0
 36 37  2  0  0  0
 37 40  1  0  0  0
 40 41  1  0  0  0
 40 42  1  0  0  0
 37 38  1  0  0  0
 38 39  2  0  0  0
 11  1  1  0  0  0
 39 34  1  0  0  0
  9  3  1  0  0  0
 26 17  1  0  0  0
 26 21  1  0  0  0
  1 12  1  0  0  0
 15 16  1  0  0  0
 30 31  1  0  0  0
M  CHG 1   1   1
M  END
> <minimizedAffinity>
-8.40813

> <CNNscore>
0.1244248971

> <CNNaffinity>
5.8507032394

> <CNN_VS>
0.7279731631

> <CNNaffinity_variance>
0.5714868307

$$$$



 42 46  0  0  0  0  0  0  0  0999 V2000
   -8.0318    2.6312  -24.0937 N   0  0  0  0  0  0  0  0  0  0  0  0
   -9.4481    3.1236  -24.1338 C   0  0  0  0  0  0  0  0  0  0  0  0
  -10.5808    2.1696  -23.8954 C   0  0  0  0  0  0  0  0  0  0  0  0
  -11.9971    2.6619  -23.9356 C   0  0  0  0  0  0  0  0  0  0  0  0
  -13.1298    1.7079  -23.6971 C   0  0  0  0  0  0  0  0  0  0  0  0
  -12.8462    0.2616  -23.4185 C   0  0  0  0  0  0  0  0  0  0  0  0
  -13.9789   -0.6924  -23.1800 Cl  0  0  0  0  0  0  0  0  0  0  0  0
  -11.4299   -0.2308  -23.3783 C   0  0  0  0  0  0  0  0  0  0  0  0
  -10.2972    0.7232  -23.6168 C   0  0  0  0  0  0  0  0  0  0  0  0
   -8.8808    0.2309  -23.5766 C   0  0  0  0  0  0  0  0  0  0  0  0
   -7.7482    1.1849  -23.8150 C   0  0  0  0  0  0  0  0  0  0  0  0
   -8.2246    3.6147  -24.2831 H   0  0  0  0  0  0  0  0  0  0  0  0
   -8.5972   -1.2155  -23.2980 C   0  0  0  0  0  0  0  0  0  0  0  0
   -8.6977   -1.7432  -21.8974 O   0  0  0  0  0  0  0  0  0  0  0  0
   -8.2131   -2.1341  -24.4198 N   0  0  0  0  0  0  0  0  0  0  0  0
   -8.1471   -1.7877  -25.3390 H   0  0  0  0  0  0  0  0  0  0  0  0
   -7.9295   -3.5804  -24.1412 C   0  0  0  0  0  0  0  0  0  0  0  0
   -7.1054   -3.9670  -22.9490 C   0  0  0  0  0  0  0  0  0  0  0  0
   -6.8218   -5.4133  -22.6704 N   0  0  0  0  0  0  0  0  0  0  0  0
   -7.3622   -6.4731  -23.5839 C   0  0  0  0  0  0  0  0  0  0  0  0
   -8.1864   -6.0866  -24.7762 C   0  0  0  0  0  0  0  0  0  0  0  0
   -8.7268   -7.1464  -25.6898 C   0  0  0  0  0  0  0  0  0  0  0  0
   -9.5509   -6.7598  -26.8821 C   0  0  0  0  0  0  0  0  0  0  0  0
   -9.8345   -5.3135  -27.1607 C   0  0  0  0  0  0  0  0  0  0  0  0
   -9.2940   -4.2537  -26.2471 C   0  0  0  0  0  0  0  0  0  0  0  0
   -8.4700   -4.6402  -25.0549 C   0  0  0  0  0  0  0  0  0  0  0  0
   -6.8990    3.5852  -24.3321 C   0  0  0  0  0  0  0  0  0  0  0  0
   -6.1823    4.1864  -21.9083 O   0  0  0  0  0  0  0  0  0  0  0  0
   -5.8251    3.7480  -23.2976 C   0  0  0  0  0  0  0  0  0  0  0  0
   -4.3940    3.4722  -23.6524 N   0  0  0  0  0  0  0  0  0  0  0  0
   -4.1596    3.1844  -24.5643 H   0  0  0  0  0  0  0  0  0  0  0  0
   -3.3200    3.6349  -22.6179 C   0  0  0  0  0  0  0  0  0  0  0  0
   -2.6727    2.4250  -22.0122 C   0  0  0  0  0  0  0  0  0  0  0  0
   -3.5151    1.3789  -21.3444 C   0  0  0  0  0  0  0  0  0  0  0  0
   -4.1900    0.3217  -22.1671 C   0  0  0  0  0  0  0  0  0  0  0  0
   -5.0324   -0.7244  -21.4992 C   0  0  0  0  0  0  0  0  0  0  0  0
   -5.1999   -0.7133  -20.0086 C   0  0  0  0  0  0  0  0  0  0  0  0
   -4.5250    0.3439  -19.1859 C   0  0  0  0  0  0  0  0  0  0  0  0
   -3.6826    1.3900  -19.8537 C   0  0  0  0  0  0  0  0  0  0  0  0
   -6.0423   -1.7594  -19.3407 C   0  0  0  0  0  0  0  0  0  0  0  0
   -7.4389   -1.4308  -18.9031 F   0  0  0  0  0  0  0  0  0  0  0  0
   -5.4881   -3.1341  -19.1104 F   0  0  0  0  0  0  0  0  0  0  0  0
 28 29  2  0  0  0
 29 27  1  0  0  0
  1 27  1  0  0  0
  1  2  1  0  0  0
  2  3  1  0  0  0
  3  4  2  0  0  0
  4  5  1  0  0  0
  5  6  2  0  0  0
  6  7  1  0  0  0
  6  8  1  0  0  0
  8  9  2  0  0  0
  9 10  1  0  0  0
 10 13  1  0  0  0
 13 14  2  0  0  0
 13 15  1  0  0  0
 15 17  1  0  0  0
 17 18  2  0  0  0
 18 19  1  0  0  0
 19 20  2  0  0  0
 20 21  1  0  0  0
 21 22  2  0  0  0
 22 23  1  0  0  0
 23 24  2  0  0  0
 24 25  1  0  0  0
 25 26  2  0  0  0
 10 11  1  0  0  0
 29 30  1  0  0  0
 30 32  1  0  0  0
 32 33  1  0  0  0
 33 34  1  0  0  0
 34 35  2  0  0  0
 35 36  1  0  0  0
 36 37  2  0  0  0
 37 40  1  0  0  0
 40 41  1  0  0  0
 40 42  1  0  0  0
 37 38  1  0  0  0
 38 39  2  0  0  0
 11  1  1  0  0  0
 39 34  1  0  0  0
  9  3  1  0  0  0
 26 17  1  0  0  0
 26 21  1  0  0  0
  1 12  1  0  0  0
 15 16  1  0  0  0
 30 31  1  0  0  0
M  CHG 1   1   1
M  END
> <minimizedAffinity>
-8.27715

> <CNNscore>
0.1152471751

> <CNNaffinity>
6.1247386932

> <CNN_VS>
0.7058588266

> <CNNaffinity_variance>
0.3695363402

$$$$
