


 43 49  0  0  0  0  0  0  0  0999 V2000
   -7.1616   -0.9080  -22.9386 N   0  0  0  0  0  0  0  0  0  0  0  0
   -7.5955    0.5110  -23.1584 C   0  0  0  0  0  0  0  0  0  0  0  0
   -9.0550    0.8419  -23.2590 C   0  0  0  0  0  0  0  0  0  0  0  0
  -10.4709    1.3224  -23.3796 C   0  0  0  0  0  0  0  0  0  0  0  0
  -11.6058    0.8891  -23.3585 O   0  0  0  0  0  0  0  0  0  0  0  0
  -10.4401    2.8070  -23.5920 N   0  0  0  0  0  0  0  0  0  0  0  0
   -9.0052    3.2440  -23.6027 C   0  0  0  0  0  0  0  0  0  0  0  0
   -8.1492    2.0296  -23.3970 C   0  0  0  0  0  0  0  0  0  0  0  0
  -10.0808   -0.2461  -23.1398 C   0  0  0  0  0  0  0  0  0  0  0  0
  -11.5403    0.0849  -23.2404 C   0  0  0  0  0  0  0  0  0  0  0  0
  -12.5660   -1.0031  -23.1212 C   0  0  0  0  0  0  0  0  0  0  0  0
  -14.0256   -0.6721  -23.2218 Cl  0  0  0  0  0  0  0  0  0  0  0  0
  -12.1321   -2.4220  -22.9013 C   0  0  0  0  0  0  0  0  0  0  0  0
  -10.6726   -2.7530  -22.8007 C   0  0  0  0  0  0  0  0  0  0  0  0
   -9.6469   -1.6650  -22.9199 C   0  0  0  0  0  0  0  0  0  0  0  0
   -8.1873   -1.9960  -22.8193 C   0  0  0  0  0  0  0  0  0  0  0  0
   -7.7535   -3.4149  -22.5995 O   0  0  0  0  0  0  0  0  0  0  0  0
  -11.6345    3.6980  -23.7635 C   0  0  0  0  0  0  0  0  0  0  0  0
  -12.5758    3.9196  -22.6168 C   0  0  0  0  0  0  0  0  0  0  0  0
  -13.7702    4.8107  -22.7884 N   0  0  0  0  0  0  0  0  0  0  0  0
  -14.0234    5.4801  -24.1066 C   0  0  0  0  0  0  0  0  0  0  0  0
  -13.0821    5.2584  -25.2533 C   0  0  0  0  0  0  0  0  0  0  0  0
  -13.3353    5.9279  -26.5716 C   0  0  0  0  0  0  0  0  0  0  0  0
  -12.3939    5.7062  -27.7183 C   0  0  0  0  0  0  0  0  0  0  0  0
  -11.1995    4.8152  -27.5467 C   0  0  0  0  0  0  0  0  0  0  0  0
  -10.9464    4.1458  -26.2285 C   0  0  0  0  0  0  0  0  0  0  0  0
  -11.8877    4.3674  -25.0818 C   0  0  0  0  0  0  0  0  0  0  0  0
   -5.7020   -1.2390  -22.8379 C   0  0  0  0  0  0  0  0  0  0  0  0
   -1.6334    0.5107  -25.7130 C   0  0  0  0  0  0  0  0  0  0  0  0
   -2.9178   -0.1541  -25.3153 C   0  0  0  0  0  0  0  0  0  0  0  0
   -3.8450   -0.8990  -26.2293 N   0  0  0  0  0  0  0  0  0  0  0  0
   -5.0008   -1.3961  -25.4126 N   0  0  0  0  0  0  0  0  0  0  0  0
   -4.7880   -0.9584  -23.9937 C   0  0  0  0  0  0  0  0  0  0  0  0
   -3.5006   -0.1908  -23.9335 O   0  0  0  0  0  0  0  0  0  0  0  0
   -6.6505    2.0068  -23.3392 C   0  0  0  0  0  0  0  0  0  0  0  0
   -5.9111    3.0937  -22.6169 N   0  0  0  0  0  0  0  0  0  0  0  0
   -6.1537    4.0363  -22.7647 H   0  0  0  0  0  0  0  0  0  0  0  0
   -4.8021    2.7445  -21.6692 C   0  0  0  0  0  0  0  0  0  0  0  0
   -4.9773    1.6209  -20.6910 C   0  0  0  0  0  0  0  0  0  0  0  0
   -3.8683    1.2717  -19.7434 C   0  0  0  0  0  0  0  0  0  0  0  0
   -2.5840    2.0461  -19.7739 N   0  0  0  0  0  0  0  0  0  0  0  0
   -2.4087    3.1696  -20.7521 C   0  0  0  0  0  0  0  0  0  0  0  0
   -3.5178    3.5188  -21.6997 N   0  0  0  0  0  0  0  0  0  0  0  0
 29 30  1  0  0  0
 30 31  2  0  0  0
 31 32  1  0  0  0
 32 33  2  0  0  0
 33 28  1  0  0  0
 28  1  1  0  0  0
  1  2  1  0  0  0
  3  2  1  0  0  0
  3  4  1  0  0  0
  4  5  2  0  0  0
  4  6  1  0  0  0
  6 18  1  0  0  0
 18 19  2  0  0  0
 19 20  1  0  0  0
 20 21  2  0  0  0
 21 22  1  0  0  0
 22 23  2  0  0  0
 23 24  1  0  0  0
 24 25  2  0  0  0
 25 26  1  0  0  0
 26 27  2  0  0  0
  6  7  1  0  0  0
  7  8  1  0  0  0
  8 35  1  0  0  0
 35 36  1  0  0  0
 36 38  1  0  0  0
 38 39  2  0  0  0
 39 40  1  0  0  0
 40 41  2  0  0  0
 41 42  1  0  0  0
 42 43  2  0  0  0
  3  9  1  0  0  0
  9 10  2  0  0  0
 10 11  1  0  0  0
 11 12  1  0  0  0
 11 13  2  0  0  0
 13 14  1  0  0  0
 14 15  2  0  0  0
 15 16  1  0  0  0
 16 17  2  0  0  0
 33 34  1  0  0  0
 34 30  1  0  0  0
 16  1  1  0  0  0
  8  3  1  0  0  0
 43 38  1  0  0  0
 15  9  1  0  0  0
 27 18  1  0  0  0
 27 22  1  0  0  0
 36 37  1  0  0  0
M  END
> <minimizedAffinity>
-8.05779

> <CNNscore>
0.5448250175

> <CNNaffinity>
7.1476683617

> <CNN_VS>
3.8942284584

> <CNNaffinity_variance>
0.1991223395

$$$$



 43 49  0  0  0  0  0  0  0  0999 V2000
   -7.4381   -1.3294  -22.8704 N   0  0  0  0  0  0  0  0  0  0  0  0
   -7.6381    0.1269  -23.1690 C   0  0  0  0  0  0  0  0  0  0  0  0
   -9.0243    0.6744  -23.3380 C   0  0  0  0  0  0  0  0  0  0  0  0
  -10.3434    1.3617  -23.5319 C   0  0  0  0  0  0  0  0  0  0  0  0
  -11.5323    1.1108  -23.5335 O   0  0  0  0  0  0  0  0  0  0  0  0
  -10.0747    2.8112  -23.8088 N   0  0  0  0  0  0  0  0  0  0  0  0
   -8.5894    3.0198  -23.7860 C   0  0  0  0  0  0  0  0  0  0  0  0
   -7.9403    1.6992  -23.4950 C   0  0  0  0  0  0  0  0  0  0  0  0
  -10.2107   -0.2344  -23.2085 C   0  0  0  0  0  0  0  0  0  0  0  0
  -11.5969    0.3131  -23.3776 C   0  0  0  0  0  0  0  0  0  0  0  0
  -12.7831   -0.5958  -23.2481 C   0  0  0  0  0  0  0  0  0  0  0  0
  -14.1694   -0.0483  -23.4171 Cl  0  0  0  0  0  0  0  0  0  0  0  0
  -12.5831   -2.0521  -22.9496 C   0  0  0  0  0  0  0  0  0  0  0  0
  -11.1969   -2.5996  -22.7805 C   0  0  0  0  0  0  0  0  0  0  0  0
  -10.0107   -1.6908  -22.9100 C   0  0  0  0  0  0  0  0  0  0  0  0
   -8.6244   -2.2382  -22.7410 C   0  0  0  0  0  0  0  0  0  0  0  0
   -8.4244   -3.6946  -22.4424 O   0  0  0  0  0  0  0  0  0  0  0  0
  -11.1095    3.8667  -24.0637 C   0  0  0  0  0  0  0  0  0  0  0  0
  -11.9831    4.3468  -22.9429 C   0  0  0  0  0  0  0  0  0  0  0  0
  -13.0179    5.4024  -23.1978 N   0  0  0  0  0  0  0  0  0  0  0  0
  -13.1791    5.9778  -24.5736 C   0  0  0  0  0  0  0  0  0  0  0  0
  -12.3055    5.4977  -25.6945 C   0  0  0  0  0  0  0  0  0  0  0  0
  -12.4667    6.0733  -27.0703 C   0  0  0  0  0  0  0  0  0  0  0  0
  -11.5930    5.5931  -28.1911 C   0  0  0  0  0  0  0  0  0  0  0  0
  -10.5582    4.5376  -27.9362 C   0  0  0  0  0  0  0  0  0  0  0  0
  -10.3970    3.9621  -26.5604 C   0  0  0  0  0  0  0  0  0  0  0  0
  -11.2707    4.4422  -25.4395 C   0  0  0  0  0  0  0  0  0  0  0  0
   -6.0518   -1.8769  -22.7014 C   0  0  0  0  0  0  0  0  0  0  0  0
   -5.6145   -6.9195  -21.1976 C   0  0  0  0  0  0  0  0  0  0  0  0
   -5.6249   -5.4198  -21.1745 C   0  0  0  0  0  0  0  0  0  0  0  0
   -5.3320   -4.5542  -19.9849 N   0  0  0  0  0  0  0  0  0  0  0  0
   -5.4562   -3.1217  -20.4122 N   0  0  0  0  0  0  0  0  0  0  0  0
   -5.8260   -3.1019  -21.8657 C   0  0  0  0  0  0  0  0  0  0  0  0
   -5.9303   -4.5222  -22.3369 O   0  0  0  0  0  0  0  0  0  0  0  0
   -6.4659    1.4476  -23.3810 C   0  0  0  0  0  0  0  0  0  0  0  0
   -5.5481    2.5514  -22.9461 N   0  0  0  0  0  0  0  0  0  0  0  0
   -5.5361    3.4041  -23.4380 H   0  0  0  0  0  0  0  0  0  0  0  0
   -4.6486    2.3560  -21.7618 C   0  0  0  0  0  0  0  0  0  0  0  0
   -3.4159    3.1969  -21.6095 C   0  0  0  0  0  0  0  0  0  0  0  0
   -2.5164    3.0016  -20.4252 C   0  0  0  0  0  0  0  0  0  0  0  0
   -2.8496    1.9654  -19.3930 N   0  0  0  0  0  0  0  0  0  0  0  0
   -4.0824    1.1245  -19.5453 C   0  0  0  0  0  0  0  0  0  0  0  0
   -4.9819    1.3198  -20.7297 N   0  0  0  0  0  0  0  0  0  0  0  0
 29 30  1  0  0  0
 30 31  2  0  0  0
 31 32  1  0  0  0
 32 33  2  0  0  0
 33 28  1  0  0  0
 28  1  1  0  0  0
  1  2  1  0  0  0
  3  2  1  0  0  0
  3  4  1  0  0  0
  4  5  2  0  0  0
  4  6  1  0  0  0
  6 18  1  0  0  0
 18 19  2  0  0  0
 19 20  1  0  0  0
 20 21  2  0  0  0
 21 22  1  0  0  0
 22 23  2  0  0  0
 23 24  1  0  0  0
 24 25  2  0  0  0
 25 26  1  0  0  0
 26 27  2  0  0  0
  6  7  1  0  0  0
  7  8  1  0  0  0
  8 35  1  0  0  0
 35 36  1  0  0  0
 36 38  1  0  0  0
 38 39  2  0  0  0
 39 40  1  0  0  0
 40 41  2  0  0  0
 41 42  1  0  0  0
 42 43  2  0  0  0
  3  9  1  0  0  0
  9 10  2  0  0  0
 10 11  1  0  0  0
 11 12  1  0  0  0
 11 13  2  0  0  0
 13 14  1  0  0  0
 14 15  2  0  0  0
 15 16  1  0  0  0
 16 17  2  0  0  0
 33 34  1  0  0  0
 34 30  1  0  0  0
 16  1  1  0  0  0
  8  3  1  0  0  0
 43 38  1  0  0  0
 15  9  1  0  0  0
 27 18  1  0  0  0
 27 22  1  0  0  0
 36 37  1  0  0  0
M  END
> <minimizedAffinity>
-8.68029

> <CNNscore>
0.5208832622

> <CNNaffinity>
7.0630898476

> <CNN_VS>
3.6790452003

> <CNNaffinity_variance>
0.0986172184

$$$$



 43 49  0  0  0  0  0  0  0  0999 V2000
   -7.0966   -1.1101  -22.6377 N   0  0  0  0  0  0  0  0  0  0  0  0
   -7.1984    0.2245  -23.3148 C   0  0  0  0  0  0  0  0  0  0  0  0
   -8.5386    0.7536  -23.7319 C   0  0  0  0  0  0  0  0  0  0  0  0
   -9.8028    1.4090  -24.2033 C   0  0  0  0  0  0  0  0  0  0  0  0
  -11.0000    1.2046  -24.2384 O   0  0  0  0  0  0  0  0  0  0  0  0
   -9.4396    2.7276  -24.8193 N   0  0  0  0  0  0  0  0  0  0  0  0
   -7.9509    2.8871  -24.7286 C   0  0  0  0  0  0  0  0  0  0  0  0
   -7.3940    1.6672  -24.0566 C   0  0  0  0  0  0  0  0  0  0  0  0
   -9.7770   -0.0519  -23.4719 C   0  0  0  0  0  0  0  0  0  0  0  0
  -11.1171    0.4772  -23.8890 C   0  0  0  0  0  0  0  0  0  0  0  0
  -12.3555   -0.3283  -23.6290 C   0  0  0  0  0  0  0  0  0  0  0  0
  -13.6957    0.2007  -24.0462 Cl  0  0  0  0  0  0  0  0  0  0  0  0
  -12.2537   -1.6629  -22.9519 C   0  0  0  0  0  0  0  0  0  0  0  0
  -10.9135   -2.1920  -22.5348 C   0  0  0  0  0  0  0  0  0  0  0  0
   -9.6752   -1.3865  -22.7948 C   0  0  0  0  0  0  0  0  0  0  0  0
   -8.3349   -1.9156  -22.3776 C   0  0  0  0  0  0  0  0  0  0  0  0
   -8.2331   -3.2502  -21.7005 O   0  0  0  0  0  0  0  0  0  0  0  0
  -10.3971    3.7134  -25.4204 C   0  0  0  0  0  0  0  0  0  0  0  0
  -10.2765    4.0893  -26.8676 C   0  0  0  0  0  0  0  0  0  0  0  0
  -11.2339    5.0752  -27.4687 N   0  0  0  0  0  0  0  0  0  0  0  0
  -12.3119    5.6851  -26.6227 C   0  0  0  0  0  0  0  0  0  0  0  0
  -12.4325    5.3093  -25.1755 C   0  0  0  0  0  0  0  0  0  0  0  0
  -13.5106    5.9193  -24.3295 C   0  0  0  0  0  0  0  0  0  0  0  0
  -13.6311    5.5434  -22.8824 C   0  0  0  0  0  0  0  0  0  0  0  0
  -12.6736    4.5575  -22.2812 C   0  0  0  0  0  0  0  0  0  0  0  0
  -11.5956    3.9475  -23.1273 C   0  0  0  0  0  0  0  0  0  0  0  0
  -11.4751    4.3234  -24.5744 C   0  0  0  0  0  0  0  0  0  0  0  0
   -5.7564   -1.6391  -22.2205 C   0  0  0  0  0  0  0  0  0  0  0  0
   -5.7039   -6.8799  -21.5779 C   0  0  0  0  0  0  0  0  0  0  0  0
   -5.6238   -5.4078  -21.3011 C   0  0  0  0  0  0  0  0  0  0  0  0
   -5.3384   -4.7749  -19.9715 N   0  0  0  0  0  0  0  0  0  0  0  0
   -5.3533   -3.2861  -20.1541 N   0  0  0  0  0  0  0  0  0  0  0  0
   -5.6479   -2.9989  -21.5966 C   0  0  0  0  0  0  0  0  0  0  0  0
   -5.8151   -4.3102  -22.3055 O   0  0  0  0  0  0  0  0  0  0  0  0
   -5.9467    1.4066  -23.7611 C   0  0  0  0  0  0  0  0  0  0  0  0
   -5.0904    2.4960  -23.1869 N   0  0  0  0  0  0  0  0  0  0  0  0
   -5.2048    3.4248  -23.4928 H   0  0  0  0  0  0  0  0  0  0  0  0
   -4.0599    2.1706  -22.1466 C   0  0  0  0  0  0  0  0  0  0  0  0
   -2.6038    2.1742  -22.5065 C   0  0  0  0  0  0  0  0  0  0  0  0
   -1.5733    1.8488  -21.4664 C   0  0  0  0  0  0  0  0  0  0  0  0
   -1.9989    1.5196  -20.0661 N   0  0  0  0  0  0  0  0  0  0  0  0
   -3.4551    1.5159  -19.7062 C   0  0  0  0  0  0  0  0  0  0  0  0
   -4.4856    1.8414  -20.7465 N   0  0  0  0  0  0  0  0  0  0  0  0
 29 30  1  0  0  0
 30 31  2  0  0  0
 31 32  1  0  0  0
 32 33  2  0  0  0
 33 28  1  0  0  0
 28  1  1  0  0  0
  1  2  1  0  0  0
  3  2  1  0  0  0
  3  4  1  0  0  0
  4  5  2  0  0  0
  4  6  1  0  0  0
  6 18  1  0  0  0
 18 19  2  0  0  0
 19 20  1  0  0  0
 20 21  2  0  0  0
 21 22  1  0  0  0
 22 23  2  0  0  0
 23 24  1  0  0  0
 24 25  2  0  0  0
 25 26  1  0  0  0
 26 27  2  0  0  0
  6  7  1  0  0  0
  7  8  1  0  0  0
  8 35  1  0  0  0
 35 36  1  0  0  0
 36 38  1  0  0  0
 38 39  2  0  0  0
 39 40  1  0  0  0
 40 41  2  0  0  0
 41 42  1  0  0  0
 42 43  2  0  0  0
  3  9  1  0  0  0
  9 10  2  0  0  0
 10 11  1  0  0  0
 11 12  1  0  0  0
 11 13  2  0  0  0
 13 14  1  0  0  0
 14 15  2  0  0  0
 15 16  1  0  0  0
 16 17  2  0  0  0
 33 34  1  0  0  0
 34 30  1  0  0  0
 16  1  1  0  0  0
  8  3  1  0  0  0
 43 38  1  0  0  0
 15  9  1  0  0  0
 27 18  1  0  0  0
 27 22  1  0  0  0
 36 37  1  0  0  0
M  END
> <minimizedAffinity>
-8.05330

> <CNNscore>
0.3410855830

> <CNNaffinity>
6.7004723549

> <CNN_VS>
2.2854344845

> <CNNaffinity_variance>
0.2300506830

$$$$



 43 49  0  0  0  0  0  0  0  0999 V2000
   -5.4151   -6.1142  -23.5596 N   0  0  0  0  0  0  0  0  0  0  0  0
   -5.9935   -4.8446  -23.0087 C   0  0  0  0  0  0  0  0  0  0  0  0
   -7.0512   -4.1076  -23.7756 C   0  0  0  0  0  0  0  0  0  0  0  0
   -8.1090   -3.2658  -24.4255 C   0  0  0  0  0  0  0  0  0  0  0  0
   -8.7934   -3.2421  -25.4292 O   0  0  0  0  0  0  0  0  0  0  0  0
   -8.3850   -2.0948  -23.5295 N   0  0  0  0  0  0  0  0  0  0  0  0
   -7.4977   -2.2129  -22.3259 C   0  0  0  0  0  0  0  0  0  0  0  0
   -6.6733   -3.4568  -22.4780 C   0  0  0  0  0  0  0  0  0  0  0  0
   -7.5304   -4.6401  -25.0935 C   0  0  0  0  0  0  0  0  0  0  0  0
   -8.5880   -3.9031  -25.8603 C   0  0  0  0  0  0  0  0  0  0  0  0
   -9.0672   -4.4357  -27.1782 C   0  0  0  0  0  0  0  0  0  0  0  0
  -10.1249   -3.6986  -27.9451 Cl  0  0  0  0  0  0  0  0  0  0  0  0
   -8.4888   -5.7052  -27.7291 C   0  0  0  0  0  0  0  0  0  0  0  0
   -7.4312   -6.4423  -26.9622 C   0  0  0  0  0  0  0  0  0  0  0  0
   -6.9520   -5.9097  -25.6444 C   0  0  0  0  0  0  0  0  0  0  0  0
   -5.8943   -6.6468  -24.8775 C   0  0  0  0  0  0  0  0  0  0  0  0
   -5.3158   -7.9164  -25.4284 O   0  0  0  0  0  0  0  0  0  0  0  0
   -9.3745   -0.9983  -23.7913 C   0  0  0  0  0  0  0  0  0  0  0  0
   -8.9222    0.2854  -24.4218 C   0  0  0  0  0  0  0  0  0  0  0  0
   -9.9117    1.3819  -24.6836 N   0  0  0  0  0  0  0  0  0  0  0  0
  -11.3535    1.1946  -24.3149 C   0  0  0  0  0  0  0  0  0  0  0  0
  -11.8059   -0.0891  -23.6844 C   0  0  0  0  0  0  0  0  0  0  0  0
  -13.2478   -0.2762  -23.3156 C   0  0  0  0  0  0  0  0  0  0  0  0
  -13.7000   -1.5600  -22.6851 C   0  0  0  0  0  0  0  0  0  0  0  0
  -12.7105   -2.6565  -22.4233 C   0  0  0  0  0  0  0  0  0  0  0  0
  -11.2687   -2.4693  -22.7921 C   0  0  0  0  0  0  0  0  0  0  0  0
  -10.8163   -1.1856  -23.4226 C   0  0  0  0  0  0  0  0  0  0  0  0
   -4.3574   -6.8513  -22.7927 C   0  0  0  0  0  0  0  0  0  0  0  0
    0.7164   -8.1791  -23.4045 C   0  0  0  0  0  0  0  0  0  0  0  0
   -0.6329   -7.5615  -23.6231 C   0  0  0  0  0  0  0  0  0  0  0  0
   -1.0123   -6.6483  -24.7510 N   0  0  0  0  0  0  0  0  0  0  0  0
   -2.4537   -6.2711  -24.5772 N   0  0  0  0  0  0  0  0  0  0  0  0
   -2.9651   -6.9512  -23.3419 C   0  0  0  0  0  0  0  0  0  0  0  0
   -1.8398   -7.7488  -22.7522 O   0  0  0  0  0  0  0  0  0  0  0  0
   -5.6507   -3.9614  -21.5035 C   0  0  0  0  0  0  0  0  0  0  0  0
   -5.6901   -3.5097  -20.0737 N   0  0  0  0  0  0  0  0  0  0  0  0
   -5.9338   -4.1460  -19.3631 H   0  0  0  0  0  0  0  0  0  0  0  0
   -5.3583   -2.0887  -19.7266 C   0  0  0  0  0  0  0  0  0  0  0  0
   -4.6923   -1.2052  -20.7394 C   0  0  0  0  0  0  0  0  0  0  0  0
   -4.3604    0.2158  -20.3924 C   0  0  0  0  0  0  0  0  0  0  0  0
   -4.6946    0.7534  -19.0324 N   0  0  0  0  0  0  0  0  0  0  0  0
   -5.3606   -0.1301  -18.0196 C   0  0  0  0  0  0  0  0  0  0  0  0
   -5.6924   -1.5511  -18.3667 N   0  0  0  0  0  0  0  0  0  0  0  0
 29 30  1  0  0  0
 30 31  2  0  0  0
 31 32  1  0  0  0
 32 33  2  0  0  0
 33 28  1  0  0  0
 28  1  1  0  0  0
  1  2  1  0  0  0
  3  2  1  0  0  0
  3  4  1  0  0  0
  4  5  2  0  0  0
  4  6  1  0  0  0
  6 18  1  0  0  0
 18 19  2  0  0  0
 19 20  1  0  0  0
 20 21  2  0  0  0
 21 22  1  0  0  0
 22 23  2  0  0  0
 23 24  1  0  0  0
 24 25  2  0  0  0
 25 26  1  0  0  0
 26 27  2  0  0  0
  6  7  1  0  0  0
  7  8  1  0  0  0
  8 35  1  0  0  0
 35 36  1  0  0  0
 36 38  1  0  0  0
 38 39  2  0  0  0
 39 40  1  0  0  0
 40 41  2  0  0  0
 41 42  1  0  0  0
 42 43  2  0  0  0
  3  9  1  0  0  0
  9 10  2  0  0  0
 10 11  1  0  0  0
 11 12  1  0  0  0
 11 13  2  0  0  0
 13 14  1  0  0  0
 14 15  2  0  0  0
 15 16  1  0  0  0
 16 17  2  0  0  0
 33 34  1  0  0  0
 34 30  1  0  0  0
 16  1  1  0  0  0
  8  3  1  0  0  0
 43 38  1  0  0  0
 15  9  1  0  0  0
 27 18  1  0  0  0
 27 22  1  0  0  0
 36 37  1  0  0  0
M  END
> <minimizedAffinity>
-8.51333

> <CNNscore>
0.3007716537

> <CNNaffinity>
7.0129728317

> <CNN_VS>
2.1093034744

> <CNNaffinity_variance>
0.2667675912

$$$$



 43 49  0  0  0  0  0  0  0  0999 V2000
   -6.7580   -0.5138  -22.4200 N   0  0  0  0  0  0  0  0  0  0  0  0
   -7.1409    0.8888  -22.7889 C   0  0  0  0  0  0  0  0  0  0  0  0
   -8.5681    1.2157  -23.1147 C   0  0  0  0  0  0  0  0  0  0  0  0
   -9.9475    1.6904  -23.4636 C   0  0  0  0  0  0  0  0  0  0  0  0
  -11.0790    1.2617  -23.5747 O   0  0  0  0  0  0  0  0  0  0  0  0
   -9.8707    3.1580  -23.7639 N   0  0  0  0  0  0  0  0  0  0  0  0
   -8.4437    3.5904  -23.6006 C   0  0  0  0  0  0  0  0  0  0  0  0
   -7.6386    2.3900  -23.1994 C   0  0  0  0  0  0  0  0  0  0  0  0
   -9.6125    0.1399  -23.0717 C   0  0  0  0  0  0  0  0  0  0  0  0
  -11.0397    0.4667  -23.3976 C   0  0  0  0  0  0  0  0  0  0  0  0
  -12.0841   -0.6091  -23.3546 C   0  0  0  0  0  0  0  0  0  0  0  0
  -13.5114   -0.2822  -23.6804 Cl  0  0  0  0  0  0  0  0  0  0  0  0
  -11.7013   -2.0117  -22.9858 C   0  0  0  0  0  0  0  0  0  0  0  0
  -10.2741   -2.3386  -22.6599 C   0  0  0  0  0  0  0  0  0  0  0  0
   -9.2297   -1.2628  -22.7029 C   0  0  0  0  0  0  0  0  0  0  0  0
   -7.8024   -1.5896  -22.3771 C   0  0  0  0  0  0  0  0  0  0  0  0
   -7.4196   -2.9923  -22.0083 O   0  0  0  0  0  0  0  0  0  0  0  0
  -11.0192    4.0386  -24.1583 C   0  0  0  0  0  0  0  0  0  0  0  0
  -11.9730    4.5396  -23.1146 C   0  0  0  0  0  0  0  0  0  0  0  0
  -13.1215    5.4201  -23.5090 N   0  0  0  0  0  0  0  0  0  0  0  0
  -13.3162    5.7997  -24.9470 C   0  0  0  0  0  0  0  0  0  0  0  0
  -12.3623    5.2987  -25.9907 C   0  0  0  0  0  0  0  0  0  0  0  0
  -12.5570    5.6783  -27.4288 C   0  0  0  0  0  0  0  0  0  0  0  0
  -11.6032    5.1773  -28.4724 C   0  0  0  0  0  0  0  0  0  0  0  0
  -10.4547    4.2967  -28.0780 C   0  0  0  0  0  0  0  0  0  0  0  0
  -10.2600    3.9171  -26.6400 C   0  0  0  0  0  0  0  0  0  0  0  0
  -11.2138    4.4181  -25.5963 C   0  0  0  0  0  0  0  0  0  0  0  0
   -5.3307   -0.8406  -22.0942 C   0  0  0  0  0  0  0  0  0  0  0  0
   -1.5235    2.0536  -19.8561 C   0  0  0  0  0  0  0  0  0  0  0  0
   -2.8211    1.3382  -20.0892 C   0  0  0  0  0  0  0  0  0  0  0  0
   -3.9832    1.2889  -19.1421 N   0  0  0  0  0  0  0  0  0  0  0  0
   -5.0648    0.4666  -19.7779 N   0  0  0  0  0  0  0  0  0  0  0  0
   -4.5711    0.0078  -21.1179 C   0  0  0  0  0  0  0  0  0  0  0  0
   -3.1844    0.5465  -21.3104 O   0  0  0  0  0  0  0  0  0  0  0  0
   -6.1632    2.3678  -22.9301 C   0  0  0  0  0  0  0  0  0  0  0  0
   -5.2026    2.8527  -23.9751 N   0  0  0  0  0  0  0  0  0  0  0  0
   -4.2454    2.9388  -23.7618 H   0  0  0  0  0  0  0  0  0  0  0  0
   -5.7005    3.2063  -25.3452 C   0  0  0  0  0  0  0  0  0  0  0  0
   -6.0459    2.1207  -26.3210 C   0  0  0  0  0  0  0  0  0  0  0  0
   -6.5437    2.4743  -27.6910 C   0  0  0  0  0  0  0  0  0  0  0  0
   -6.6961    3.9136  -28.0854 N   0  0  0  0  0  0  0  0  0  0  0  0
   -6.3506    4.9991  -27.1096 C   0  0  0  0  0  0  0  0  0  0  0  0
   -5.8528    4.6455  -25.7395 N   0  0  0  0  0  0  0  0  0  0  0  0
 29 30  1  0  0  0
 30 31  2  0  0  0
 31 32  1  0  0  0
 32 33  2  0  0  0
 33 28  1  0  0  0
 28  1  1  0  0  0
  1  2  1  0  0  0
  3  2  1  0  0  0
  3  4  1  0  0  0
  4  5  2  0  0  0
  4  6  1  0  0  0
  6 18  1  0  0  0
 18 19  2  0  0  0
 19 20  1  0  0  0
 20 21  2  0  0  0
 21 22  1  0  0  0
 22 23  2  0  0  0
 23 24  1  0  0  0
 24 25  2  0  0  0
 25 26  1  0  0  0
 26 27  2  0  0  0
  6  7  1  0  0  0
  7  8  1  0  0  0
  8 35  1  0  0  0
 35 36  1  0  0  0
 36 38  1  0  0  0
 38 39  2  0  0  0
 39 40  1  0  0  0
 40 41  2  0  0  0
 41 42  1  0  0  0
 42 43  2  0  0  0
  3  9  1  0  0  0
  9 10  2  0  0  0
 10 11  1  0  0  0
 11 12  1  0  0  0
 11 13  2  0  0  0
 13 14  1  0  0  0
 14 15  2  0  0  0
 15 16  1  0  0  0
 16 17  2  0  0  0
 33 34  1  0  0  0
 34 30  1  0  0  0
 16  1  1  0  0  0
  8  3  1  0  0  0
 43 38  1  0  0  0
 15  9  1  0  0  0
 27 18  1  0  0  0
 27 22  1  0  0  0
 36 37  1  0  0  0
M  END
> <minimizedAffinity>
-7.83932

> <CNNscore>
0.1922372133

> <CNNaffinity>
6.6334371567

> <CNN_VS>
1.2751934528

> <CNNaffinity_variance>
0.3583328128

$$$$



 43 49  0  0  0  0  0  0  0  0999 V2000
  -11.8944    0.8810  -23.4760 N   0  0  0  0  0  0  0  0  0  0  0  0
  -10.6293    1.6585  -23.6879 C   0  0  0  0  0  0  0  0  0  0  0  0
   -9.3043    0.9558  -23.6642 C   0  0  0  0  0  0  0  0  0  0  0  0
   -7.9138    0.3933  -23.6677 C   0  0  0  0  0  0  0  0  0  0  0  0
   -7.3391   -0.6690  -23.5348 O   0  0  0  0  0  0  0  0  0  0  0  0
   -6.9576    1.5222  -23.9155 N   0  0  0  0  0  0  0  0  0  0  0  0
   -7.7572    2.7824  -24.0651 C   0  0  0  0  0  0  0  0  0  0  0  0
   -9.2075    2.4324  -23.9098 C   0  0  0  0  0  0  0  0  0  0  0  0
   -9.2444   -0.5244  -23.4287 C   0  0  0  0  0  0  0  0  0  0  0  0
   -7.9194   -1.2271  -23.4050 C   0  0  0  0  0  0  0  0  0  0  0  0
   -7.8595   -2.7072  -23.1695 C   0  0  0  0  0  0  0  0  0  0  0  0
   -6.5345   -3.4099  -23.1458 Cl  0  0  0  0  0  0  0  0  0  0  0  0
   -9.1247   -3.4847  -22.9576 C   0  0  0  0  0  0  0  0  0  0  0  0
  -10.4497   -2.7821  -22.9812 C   0  0  0  0  0  0  0  0  0  0  0  0
  -10.5095   -1.3019  -23.2168 C   0  0  0  0  0  0  0  0  0  0  0  0
  -11.8346   -0.5992  -23.2404 C   0  0  0  0  0  0  0  0  0  0  0  0
  -13.0997   -1.3767  -23.0285 O   0  0  0  0  0  0  0  0  0  0  0  0
   -5.4641    1.4104  -23.9989 C   0  0  0  0  0  0  0  0  0  0  0  0
   -4.7947    1.2883  -25.3357 C   0  0  0  0  0  0  0  0  0  0  0  0
   -3.3012    1.1765  -25.4192 N   0  0  0  0  0  0  0  0  0  0  0  0
   -2.4771    1.1868  -24.1658 C   0  0  0  0  0  0  0  0  0  0  0  0
   -3.1466    1.3088  -22.8291 C   0  0  0  0  0  0  0  0  0  0  0  0
   -2.3225    1.3191  -21.5757 C   0  0  0  0  0  0  0  0  0  0  0  0
   -2.9920    1.4412  -20.2390 C   0  0  0  0  0  0  0  0  0  0  0  0
   -4.4855    1.5529  -20.1555 C   0  0  0  0  0  0  0  0  0  0  0  0
   -5.3096    1.5427  -21.4088 C   0  0  0  0  0  0  0  0  0  0  0  0
   -4.6401    1.4206  -22.7456 C   0  0  0  0  0  0  0  0  0  0  0  0
  -13.2195    1.5837  -23.4996 C   0  0  0  0  0  0  0  0  0  0  0  0
  -13.6266    6.7004  -24.7383 C   0  0  0  0  0  0  0  0  0  0  0  0
  -13.4650    5.4303  -23.9569 C   0  0  0  0  0  0  0  0  0  0  0  0
  -13.2703    5.3266  -22.4732 N   0  0  0  0  0  0  0  0  0  0  0  0
  -13.1546    3.8731  -22.1214 N   0  0  0  0  0  0  0  0  0  0  0  0
  -13.2778    3.0784  -23.3876 C   0  0  0  0  0  0  0  0  0  0  0  0
  -13.4697    4.0408  -24.5221 O   0  0  0  0  0  0  0  0  0  0  0  0
  -10.3589    3.3907  -23.9867 C   0  0  0  0  0  0  0  0  0  0  0  0
  -10.2005    4.7952  -23.4846 N   0  0  0  0  0  0  0  0  0  0  0  0
  -10.9584    5.2522  -23.0533 H   0  0  0  0  0  0  0  0  0  0  0  0
   -8.8874    5.5036  -23.6395 C   0  0  0  0  0  0  0  0  0  0  0  0
   -7.9510    5.6111  -22.4726 C   0  0  0  0  0  0  0  0  0  0  0  0
   -6.6380    6.3195  -22.6275 C   0  0  0  0  0  0  0  0  0  0  0  0
   -6.2612    6.9204  -23.9493 N   0  0  0  0  0  0  0  0  0  0  0  0
   -7.1977    6.8129  -25.1161 C   0  0  0  0  0  0  0  0  0  0  0  0
   -8.5107    6.1045  -24.9612 N   0  0  0  0  0  0  0  0  0  0  0  0
 29 30  1  0  0  0
 30 31  2  0  0  0
 31 32  1  0  0  0
 32 33  2  0  0  0
 33 28  1  0  0  0
 28  1  1  0  0  0
  1  2  1  0  0  0
  3  2  1  0  0  0
  3  4  1  0  0  0
  4  5  2  0  0  0
  4  6  1  0  0  0
  6 18  1  0  0  0
 18 19  2  0  0  0
 19 20  1  0  0  0
 20 21  2  0  0  0
 21 22  1  0  0  0
 22 23  2  0  0  0
 23 24  1  0  0  0
 24 25  2  0  0  0
 25 26  1  0  0  0
 26 27  2  0  0  0
  6  7  1  0  0  0
  7  8  1  0  0  0
  8 35  1  0  0  0
 35 36  1  0  0  0
 36 38  1  0  0  0
 38 39  2  0  0  0
 39 40  1  0  0  0
 40 41  2  0  0  0
 41 42  1  0  0  0
 42 43  2  0  0  0
  3  9  1  0  0  0
  9 10  2  0  0  0
 10 11  1  0  0  0
 11 12  1  0  0  0
 11 13  2  0  0  0
 13 14  1  0  0  0
 14 15  2  0  0  0
 15 16  1  0  0  0
 16 17  2  0  0  0
 33 34  1  0  0  0
 34 30  1  0  0  0
 16  1  1  0  0  0
  8  3  1  0  0  0
 43 38  1  0  0  0
 15  9  1  0  0  0
 27 18  1  0  0  0
 27 22  1  0  0  0
 36 37  1  0  0  0
M  END
> <minimizedAffinity>
-8.11175

> <CNNscore>
0.1679902524

> <CNNaffinity>
6.8117737770

> <CNN_VS>
1.1443115473

> <CNNaffinity_variance>
0.2210277617

$$$$



 43 49  0  0  0  0  0  0  0  0999 V2000
   -6.3430   -0.4230  -22.6782 N   0  0  0  0  0  0  0  0  0  0  0  0
   -6.6411    0.8553  -23.4041 C   0  0  0  0  0  0  0  0  0  0  0  0
   -8.0425    1.1582  -23.8449 C   0  0  0  0  0  0  0  0  0  0  0  0
   -9.3876    1.5955  -24.3443 C   0  0  0  0  0  0  0  0  0  0  0  0
  -10.5393    1.2096  -24.3760 O   0  0  0  0  0  0  0  0  0  0  0  0
   -9.2243    2.9313  -25.0069 N   0  0  0  0  0  0  0  0  0  0  0  0
   -7.7782    3.3196  -24.9170 C   0  0  0  0  0  0  0  0  0  0  0  0
   -7.0478    2.2238  -24.1989 C   0  0  0  0  0  0  0  0  0  0  0  0
   -9.1458    0.1828  -23.5598 C   0  0  0  0  0  0  0  0  0  0  0  0
  -10.5472    0.4857  -24.0007 C   0  0  0  0  0  0  0  0  0  0  0  0
  -11.6504   -0.4898  -23.7156 C   0  0  0  0  0  0  0  0  0  0  0  0
  -13.0519   -0.1869  -24.1564 Cl  0  0  0  0  0  0  0  0  0  0  0  0
  -11.3523   -1.7681  -22.9897 C   0  0  0  0  0  0  0  0  0  0  0  0
   -9.9509   -2.0710  -22.5489 C   0  0  0  0  0  0  0  0  0  0  0  0
   -8.8477   -1.0956  -22.8339 C   0  0  0  0  0  0  0  0  0  0  0  0
   -7.4462   -1.3985  -22.3931 C   0  0  0  0  0  0  0  0  0  0  0  0
   -7.1481   -2.6768  -21.6672 O   0  0  0  0  0  0  0  0  0  0  0  0
  -10.3155    3.7373  -25.6471 C   0  0  0  0  0  0  0  0  0  0  0  0
  -10.3100    3.9628  -27.1300 C   0  0  0  0  0  0  0  0  0  0  0  0
  -11.4012    4.7688  -27.7701 N   0  0  0  0  0  0  0  0  0  0  0  0
  -12.4979    5.3491  -26.9273 C   0  0  0  0  0  0  0  0  0  0  0  0
  -12.5034    5.1235  -25.4443 C   0  0  0  0  0  0  0  0  0  0  0  0
  -13.6002    5.7039  -24.6015 C   0  0  0  0  0  0  0  0  0  0  0  0
  -13.6056    5.4783  -23.1185 C   0  0  0  0  0  0  0  0  0  0  0  0
  -12.5144    4.6724  -22.4784 C   0  0  0  0  0  0  0  0  0  0  0  0
  -11.4177    4.0920  -23.3213 C   0  0  0  0  0  0  0  0  0  0  0  0
  -11.4122    4.3176  -24.8042 C   0  0  0  0  0  0  0  0  0  0  0  0
   -4.9415   -0.7259  -22.2374 C   0  0  0  0  0  0  0  0  0  0  0  0
   -1.2658    2.2498  -19.8889 C   0  0  0  0  0  0  0  0  0  0  0  0
   -2.5588    1.5498  -20.1856 C   0  0  0  0  0  0  0  0  0  0  0  0
   -3.8047    1.6085  -19.3523 N   0  0  0  0  0  0  0  0  0  0  0  0
   -4.8488    0.7632  -20.0195 N   0  0  0  0  0  0  0  0  0  0  0  0
   -4.2484    0.1820  -21.2651 C   0  0  0  0  0  0  0  0  0  0  0  0
   -2.8330    0.6682  -21.3679 O   0  0  0  0  0  0  0  0  0  0  0  0
   -5.5804    2.1981  -23.8890 C   0  0  0  0  0  0  0  0  0  0  0  0
   -4.5790    2.4299  -24.9814 N   0  0  0  0  0  0  0  0  0  0  0  0
   -4.6205    3.2525  -25.5207 H   0  0  0  0  0  0  0  0  0  0  0  0
   -3.5145    1.4084  -25.2522 C   0  0  0  0  0  0  0  0  0  0  0  0
   -3.8062    0.2400  -26.1465 C   0  0  0  0  0  0  0  0  0  0  0  0
   -2.7418   -0.7814  -26.4172 C   0  0  0  0  0  0  0  0  0  0  0  0
   -1.3853   -0.6346  -25.7937 N   0  0  0  0  0  0  0  0  0  0  0  0
   -1.0936    0.5338  -24.8994 C   0  0  0  0  0  0  0  0  0  0  0  0
   -2.1581    1.5553  -24.6287 N   0  0  0  0  0  0  0  0  0  0  0  0
 29 30  1  0  0  0
 30 31  2  0  0  0
 31 32  1  0  0  0
 32 33  2  0  0  0
 33 28  1  0  0  0
 28  1  1  0  0  0
  1  2  1  0  0  0
  3  2  1  0  0  0
  3  4  1  0  0  0
  4  5  2  0  0  0
  4  6  1  0  0  0
  6 18  1  0  0  0
 18 19  2  0  0  0
 19 20  1  0  0  0
 20 21  2  0  0  0
 21 22  1  0  0  0
 22 23  2  0  0  0
 23 24  1  0  0  0
 24 25  2  0  0  0
 25 26  1  0  0  0
 26 27  2  0  0  0
  6  7  1  0  0  0
  7  8  1  0  0  0
  8 35  1  0  0  0
 35 36  1  0  0  0
 36 38  1  0  0  0
 38 39  2  0  0  0
 39 40  1  0  0  0
 40 41  2  0  0  0
 41 42  1  0  0  0
 42 43  2  0  0  0
  3  9  1  0  0  0
  9 10  2  0  0  0
 10 11  1  0  0  0
 11 12  1  0  0  0
 11 13  2  0  0  0
 13 14  1  0  0  0
 14 15  2  0  0  0
 15 16  1  0  0  0
 16 17  2  0  0  0
 33 34  1  0  0  0
 34 30  1  0  0  0
 16  1  1  0  0  0
  8  3  1  0  0  0
 43 38  1  0  0  0
 15  9  1  0  0  0
 27 18  1  0  0  0
 27 22  1  0  0  0
 36 37  1  0  0  0
M  END
> <minimizedAffinity>
-7.90390

> <CNNscore>
0.1663915515

> <CNNaffinity>
6.4578771591

> <CNN_VS>
1.0745362043

> <CNNaffinity_variance>
0.2349748611

$$$$



 43 49  0  0  0  0  0  0  0  0999 V2000
   -7.0065   -3.0150  -22.2450 N   0  0  0  0  0  0  0  0  0  0  0  0
   -7.8820   -2.1630  -23.1154 C   0  0  0  0  0  0  0  0  0  0  0  0
   -7.6544   -0.6822  -23.1874 C   0  0  0  0  0  0  0  0  0  0  0  0
   -7.5474    0.8040  -23.3597 C   0  0  0  0  0  0  0  0  0  0  0  0
   -6.8771    1.7402  -22.9716 O   0  0  0  0  0  0  0  0  0  0  0  0
   -8.6175    1.2379  -24.3171 N   0  0  0  0  0  0  0  0  0  0  0  0
   -9.3859    0.0199  -24.7365 C   0  0  0  0  0  0  0  0  0  0  0  0
   -8.7906   -1.1668  -24.0383 C   0  0  0  0  0  0  0  0  0  0  0  0
   -6.5512   -0.0532  -22.3889 C   0  0  0  0  0  0  0  0  0  0  0  0
   -6.3235    1.4276  -22.4609 C   0  0  0  0  0  0  0  0  0  0  0  0
   -5.2204    2.0565  -21.6625 C   0  0  0  0  0  0  0  0  0  0  0  0
   -4.9927    3.5374  -21.7345 Cl  0  0  0  0  0  0  0  0  0  0  0  0
   -4.3448    1.2045  -20.7921 C   0  0  0  0  0  0  0  0  0  0  0  0
   -4.5724   -0.2764  -20.7202 C   0  0  0  0  0  0  0  0  0  0  0  0
   -5.6756   -0.9052  -21.5186 C   0  0  0  0  0  0  0  0  0  0  0  0
   -5.9033   -2.3862  -21.4466 C   0  0  0  0  0  0  0  0  0  0  0  0
   -5.0278   -3.2381  -20.5762 O   0  0  0  0  0  0  0  0  0  0  0  0
   -8.8742    2.6432  -24.7747 C   0  0  0  0  0  0  0  0  0  0  0  0
   -7.8781    3.3394  -25.6539 C   0  0  0  0  0  0  0  0  0  0  0  0
   -8.1347    4.7447  -26.1115 N   0  0  0  0  0  0  0  0  0  0  0  0
   -9.3876    5.4537  -25.6899 C   0  0  0  0  0  0  0  0  0  0  0  0
  -10.3837    4.7574  -24.8107 C   0  0  0  0  0  0  0  0  0  0  0  0
  -11.6366    5.4665  -24.3891 C   0  0  0  0  0  0  0  0  0  0  0  0
  -12.6327    4.7701  -23.5099 C   0  0  0  0  0  0  0  0  0  0  0  0
  -12.3760    3.3649  -23.0523 C   0  0  0  0  0  0  0  0  0  0  0  0
  -11.1232    2.6559  -23.4739 C   0  0  0  0  0  0  0  0  0  0  0  0
  -10.1270    3.3522  -24.3531 C   0  0  0  0  0  0  0  0  0  0  0  0
   -7.2342   -4.4959  -22.1731 C   0  0  0  0  0  0  0  0  0  0  0  0
   -8.8538   -6.9410  -26.5639 C   0  0  0  0  0  0  0  0  0  0  0  0
   -7.9864   -6.4393  -25.4477 C   0  0  0  0  0  0  0  0  0  0  0  0
   -6.5215   -6.7137  -25.2778 N   0  0  0  0  0  0  0  0  0  0  0  0
   -6.0615   -6.0191  -24.0304 N   0  0  0  0  0  0  0  0  0  0  0  0
   -7.2420   -5.3154  -23.4294 C   0  0  0  0  0  0  0  0  0  0  0  0
   -8.4317   -5.5752  -24.3053 O   0  0  0  0  0  0  0  0  0  0  0  0
   -9.2508   -2.5886  -24.1682 C   0  0  0  0  0  0  0  0  0  0  0  0
  -10.3011   -3.1247  -23.2412 N   0  0  0  0  0  0  0  0  0  0  0  0
  -10.1213   -3.9329  -22.7085 H   0  0  0  0  0  0  0  0  0  0  0  0
  -11.6252   -2.4295  -23.1257 C   0  0  0  0  0  0  0  0  0  0  0  0
  -11.8704   -1.1537  -23.8755 C   0  0  0  0  0  0  0  0  0  0  0  0
  -13.1945   -0.4585  -23.7599 C   0  0  0  0  0  0  0  0  0  0  0  0
  -14.2735   -1.0390  -22.8946 N   0  0  0  0  0  0  0  0  0  0  0  0
  -14.0283   -2.3148  -22.1448 C   0  0  0  0  0  0  0  0  0  0  0  0
  -12.7042   -3.0100  -22.2604 N   0  0  0  0  0  0  0  0  0  0  0  0
 29 30  1  0  0  0
 30 31  2  0  0  0
 31 32  1  0  0  0
 32 33  2  0  0  0
 33 28  1  0  0  0
 28  1  1  0  0  0
  1  2  1  0  0  0
  3  2  1  0  0  0
  3  4  1  0  0  0
  4  5  2  0  0  0
  4  6  1  0  0  0
  6 18  1  0  0  0
 18 19  2  0  0  0
 19 20  1  0  0  0
 20 21  2  0  0  0
 21 22  1  0  0  0
 22 23  2  0  0  0
 23 24  1  0  0  0
 24 25  2  0  0  0
 25 26  1  0  0  0
 26 27  2  0  0  0
  6  7  1  0  0  0
  7  8  1  0  0  0
  8 35  1  0  0  0
 35 36  1  0  0  0
 36 38  1  0  0  0
 38 39  2  0  0  0
 39 40  1  0  0  0
 40 41  2  0  0  0
 41 42  1  0  0  0
 42 43  2  0  0  0
  3  9  1  0  0  0
  9 10  2  0  0  0
 10 11  1  0  0  0
 11 12  1  0  0  0
 11 13  2  0  0  0
 13 14  1  0  0  0
 14 15  2  0  0  0
 15 16  1  0  0  0
 16 17  2  0  0  0
 33 34  1  0  0  0
 34 30  1  0  0  0
 16  1  1  0  0  0
  8  3  1  0  0  0
 43 38  1  0  0  0
 15  9  1  0  0  0
 27 18  1  0  0  0
 27 22  1  0  0  0
 36 37  1  0  0  0
M  END
> <minimizedAffinity>
-8.43130

> <CNNscore>
0.1430445910

> <CNNaffinity>
6.9296255112

> <CNN_VS>
0.9912454486

> <CNNaffinity_variance>
0.2365331203

$$$$



 43 49  0  0  0  0  0  0  0  0999 V2000
   -9.2077   -2.4874  -23.1858 N   0  0  0  0  0  0  0  0  0  0  0  0
   -8.2466   -1.3377  -23.2528 C   0  0  0  0  0  0  0  0  0  0  0  0
   -8.7620    0.0634  -23.3975 C   0  0  0  0  0  0  0  0  0  0  0  0
   -9.1276    1.5111  -23.5408 C   0  0  0  0  0  0  0  0  0  0  0  0
  -10.1113    2.2172  -23.6408 O   0  0  0  0  0  0  0  0  0  0  0  0
   -7.8580    2.3096  -23.5647 N   0  0  0  0  0  0  0  0  0  0  0  0
   -6.7078    1.3554  -23.4362 C   0  0  0  0  0  0  0  0  0  0  0  0
   -7.2665   -0.0328  -23.3329 C   0  0  0  0  0  0  0  0  0  0  0  0
  -10.2388    0.3150  -23.4753 C   0  0  0  0  0  0  0  0  0  0  0  0
  -10.7543    1.7161  -23.6200 C   0  0  0  0  0  0  0  0  0  0  0  0
  -12.2310    1.9677  -23.6979 C   0  0  0  0  0  0  0  0  0  0  0  0
  -12.7465    3.3689  -23.8426 Cl  0  0  0  0  0  0  0  0  0  0  0  0
  -13.1922    0.8180  -23.6309 C   0  0  0  0  0  0  0  0  0  0  0  0
  -12.6767   -0.5831  -23.4862 C   0  0  0  0  0  0  0  0  0  0  0  0
  -11.2000   -0.8346  -23.4084 C   0  0  0  0  0  0  0  0  0  0  0  0
  -10.6844   -2.2358  -23.2636 C   0  0  0  0  0  0  0  0  0  0  0  0
  -11.6456   -3.3855  -23.1967 O   0  0  0  0  0  0  0  0  0  0  0  0
   -7.7565    3.8006  -23.6944 C   0  0  0  0  0  0  0  0  0  0  0  0
   -7.4099    4.6356  -22.4975 C   0  0  0  0  0  0  0  0  0  0  0  0
   -7.3084    6.1266  -22.6272 N   0  0  0  0  0  0  0  0  0  0  0  0
   -7.5535    6.7824  -23.9537 C   0  0  0  0  0  0  0  0  0  0  0  0
   -7.9001    5.9473  -25.1506 C   0  0  0  0  0  0  0  0  0  0  0  0
   -8.1452    6.6032  -26.4772 C   0  0  0  0  0  0  0  0  0  0  0  0
   -8.4918    5.7681  -27.6741 C   0  0  0  0  0  0  0  0  0  0  0  0
   -8.5933    4.2771  -27.5444 C   0  0  0  0  0  0  0  0  0  0  0  0
   -8.3482    3.6213  -26.2178 C   0  0  0  0  0  0  0  0  0  0  0  0
   -8.0016    4.4564  -25.0209 C   0  0  0  0  0  0  0  0  0  0  0  0
   -8.6922   -3.8886  -23.0411 C   0  0  0  0  0  0  0  0  0  0  0  0
   -9.2839   -5.9113  -27.8825 C   0  0  0  0  0  0  0  0  0  0  0  0
   -8.8063   -5.6883  -26.4782 C   0  0  0  0  0  0  0  0  0  0  0  0
   -7.7766   -6.5063  -25.7567 N   0  0  0  0  0  0  0  0  0  0  0  0
   -7.6085   -5.9317  -24.3814 N   0  0  0  0  0  0  0  0  0  0  0  0
   -8.5343   -4.7585  -24.2528 C   0  0  0  0  0  0  0  0  0  0  0  0
   -9.2747   -4.6081  -25.5487 O   0  0  0  0  0  0  0  0  0  0  0  0
   -6.4696   -1.2955  -23.1900 C   0  0  0  0  0  0  0  0  0  0  0  0
   -5.1989   -1.2944  -22.3931 N   0  0  0  0  0  0  0  0  0  0  0  0
   -4.3338   -1.4202  -22.8459 H   0  0  0  0  0  0  0  0  0  0  0  0
   -5.2461   -1.1016  -20.9063 C   0  0  0  0  0  0  0  0  0  0  0  0
   -4.6075    0.1056  -20.2859 C   0  0  0  0  0  0  0  0  0  0  0  0
   -4.6548    0.2984  -18.7992 C   0  0  0  0  0  0  0  0  0  0  0  0
   -5.3406   -0.7159  -17.9327 N   0  0  0  0  0  0  0  0  0  0  0  0
   -5.9792   -1.9231  -18.5530 C   0  0  0  0  0  0  0  0  0  0  0  0
   -5.9320   -2.1159  -20.0399 N   0  0  0  0  0  0  0  0  0  0  0  0
 29 30  1  0  0  0
 30 31  2  0  0  0
 31 32  1  0  0  0
 32 33  2  0  0  0
 33 28  1  0  0  0
 28  1  1  0  0  0
  1  2  1  0  0  0
  3  2  1  0  0  0
  3  4  1  0  0  0
  4  5  2  0  0  0
  4  6  1  0  0  0
  6 18  1  0  0  0
 18 19  2  0  0  0
 19 20  1  0  0  0
 20 21  2  0  0  0
 21 22  1  0  0  0
 22 23  2  0  0  0
 23 24  1  0  0  0
 24 25  2  0  0  0
 25 26  1  0  0  0
 26 27  2  0  0  0
  6  7  1  0  0  0
  7  8  1  0  0  0
  8 35  1  0  0  0
 35 36  1  0  0  0
 36 38  1  0  0  0
 38 39  2  0  0  0
 39 40  1  0  0  0
 40 41  2  0  0  0
 41 42  1  0  0  0
 42 43  2  0  0  0
  3  9  1  0  0  0
  9 10  2  0  0  0
 10 11  1  0  0  0
 11 12  1  0  0  0
 11 13  2  0  0  0
 13 14  1  0  0  0
 14 15  2  0  0  0
 15 16  1  0  0  0
 16 17  2  0  0  0
 33 34  1  0  0  0
 34 30  1  0  0  0
 16  1  1  0  0  0
  8  3  1  0  0  0
 43 38  1  0  0  0
 15  9  1  0  0  0
 27 18  1  0  0  0
 27 22  1  0  0  0
 36 37  1  0  0  0
M  END
> <minimizedAffinity>
-8.78818

> <CNNscore>
0.1385134161

> <CNNaffinity>
6.6120085716

> <CNN_VS>
0.9158518910

> <CNNaffinity_variance>
0.6416434646

$$$$
