
     RDKit          2D

 42 48  0  0  0  0  0  0  0  0999 V2000
   -6.5218   -3.5645    0.0000 C   0  0  0  0  0  0  0  0  0  0  0  0
   -5.3083   -4.4462    0.0000 C   0  0  0  0  0  0  0  0  0  0  0  0
   -5.3083   -5.9462    0.0000 N   0  0  0  0  0  0  0  0  0  0  0  0
   -3.8817   -6.4097    0.0000 N   0  0  0  0  0  0  0  0  0  0  0  0
   -3.0000   -5.1962    0.0000 C   0  0  0  0  0  0  0  0  0  0  0  0
   -1.5000   -5.1962    0.0000 C   0  0  0  0  0  0  0  0  0  0  0  0
   -0.7500   -3.8971    0.0000 N   0  0  0  0  0  0  0  0  0  0  0  0
    0.7500   -3.8971    0.0000 C   0  0  0  0  0  0  0  0  0  0  0  0
    1.5000   -2.5981    0.0000 C   0  0  0  0  0  0  0  0  0  0  0  0
    2.3817   -1.3846    0.0000 C   0  0  0  0  0  0  0  0  0  0  0  0
    2.2970   -0.1725    0.0000 O   0  0  0  0  0  0  0  0  0  0  0  0
    3.8083   -1.8481    0.0000 N   0  0  0  0  0  0  0  0  0  0  0  0
    5.0218   -0.9664    0.0000 C   0  0  0  0  0  0  0  0  0  0  0  0
    4.8650    0.5254    0.0000 C   0  0  0  0  0  0  0  0  0  0  0  0
    6.0785    1.4071    0.0000 N   0  0  0  0  0  0  0  0  0  0  0  0
    7.4488    0.7970    0.0000 C   0  0  0  0  0  0  0  0  0  0  0  0
    7.6056   -0.6948    0.0000 C   0  0  0  0  0  0  0  0  0  0  0  0
    8.9760   -1.3049    0.0000 C   0  0  0  0  0  0  0  0  0  0  0  0
    9.1327   -2.7967    0.0000 C   0  0  0  0  0  0  0  0  0  0  0  0
    7.9192   -3.6784    0.0000 C   0  0  0  0  0  0  0  0  0  0  0  0
    6.5489   -3.0683    0.0000 C   0  0  0  0  0  0  0  0  0  0  0  0
    6.3921   -1.5765    0.0000 C   0  0  0  0  0  0  0  0  0  0  0  0
    3.8083   -3.3481    0.0000 C   0  0  0  0  0  0  0  0  0  0  0  0
    2.3817   -3.8116    0.0000 C   0  0  0  0  0  0  0  0  0  0  0  0
    1.9182   -5.2382    0.0000 C   0  0  0  0  0  0  0  0  0  0  0  0
    2.9218   -6.3529    0.0000 N   0  0  0  0  0  0  0  0  0  0  0  0
    2.4583   -7.7795    0.0000 C   0  0  0  0  0  0  0  0  0  0  0  0
    0.9911   -8.0914    0.0000 C   0  0  0  0  0  0  0  0  0  0  0  0
    0.5276   -9.5179    0.0000 C   0  0  0  0  0  0  0  0  0  0  0  0
    1.5313  -10.6327    0.0000 N   0  0  0  0  0  0  0  0  0  0  0  0
    2.9985  -10.3208    0.0000 C   0  0  0  0  0  0  0  0  0  0  0  0
    3.4620   -8.8942    0.0000 N   0  0  0  0  0  0  0  0  0  0  0  0
    0.7500   -1.2990    0.0000 C   0  0  0  0  0  0  0  0  0  0  0  0
    1.5000    0.0000    0.0000 C   0  0  0  0  0  0  0  0  0  0  0  0
    0.7500    1.2990    0.0000 C   0  0  0  0  0  0  0  0  0  0  0  0
    1.5000    2.5981    0.0000 Cl  0  0  0  0  0  0  0  0  0  0  0  0
   -0.7500    1.2990    0.0000 C   0  0  0  0  0  0  0  0  0  0  0  0
   -1.5000    0.0000    0.0000 C   0  0  0  0  0  0  0  0  0  0  0  0
   -0.7500   -1.2990    0.0000 C   0  0  0  0  0  0  0  0  0  0  0  0
   -1.5000   -2.5981    0.0000 C   0  0  0  0  0  0  0  0  0  0  0  0
   -3.0000   -2.5981    0.0000 O   0  0  0  0  0  0  0  0  0  0  0  0
   -3.8817   -3.9826    0.0000 O   0  0  0  0  0  0  0  0  0  0  0  0
  1  2  1  0
  2  3  2  0
  3  4  1  0
  4  5  2  0
  5  6  1  0
  6  7  1  0
  7  8  1  0
  9  8  1  6
  9 10  1  0
 10 11  2  0
 10 12  1  0
 12 13  1  0
 13 14  2  0
 14 15  1  0
 15 16  2  0
 16 17  1  0
 17 18  2  0
 18 19  1  0
 19 20  2  0
 20 21  1  0
 21 22  2  0
 12 23  1  0
 23 24  1  0
 24 25  1  6
 25 26  1  0
 26 27  1  0
 27 28  2  0
 28 29  1  0
 29 30  2  0
 30 31  1  0
 31 32  2  0
  9 33  1  0
 33 34  2  0
 34 35  1  0
 35 36  1  0
 35 37  2  0
 37 38  1  0
 38 39  2  0
 39 40  1  0
 40 41  2  0
  5 42  1  0
 42  2  1  0
 40  7  1  0
 24  9  1  0
 32 27  1  0
 39 33  1  0
 22 13  1  0
 22 17  1  0
M  END
$$$$
