


 39 44  0  0  0  0  0  0  0  0999 V2000
   -7.2054   -1.2214  -24.0054 N   0  0  0  0  0  0  0  0  0  0  0  0
   -7.6314    0.2122  -24.1211 C   0  0  0  0  0  0  0  0  0  0  0  0
   -9.0737    0.5829  -23.9418 C   0  0  0  0  0  0  0  0  0  0  0  0
  -10.4725    1.1022  -23.7883 C   0  0  0  0  0  0  0  0  0  0  0  0
  -11.5956    0.6983  -23.5605 O   0  0  0  0  0  0  0  0  0  0  0  0
  -10.4390    2.5892  -23.9828 N   0  0  0  0  0  0  0  0  0  0  0  0
   -9.0194    2.9889  -24.2566 C   0  0  0  0  0  0  0  0  0  0  0  0
   -8.1756    1.7489  -24.2313 C   0  0  0  0  0  0  0  0  0  0  0  0
  -10.0902   -0.4801  -23.6468 C   0  0  0  0  0  0  0  0  0  0  0  0
  -11.5326   -0.1094  -23.4676 C   0  0  0  0  0  0  0  0  0  0  0  0
  -12.5490   -1.1724  -23.1726 C   0  0  0  0  0  0  0  0  0  0  0  0
  -13.9914   -0.8017  -22.9933 Cl  0  0  0  0  0  0  0  0  0  0  0  0
  -12.1230   -2.6060  -23.0570 C   0  0  0  0  0  0  0  0  0  0  0  0
  -10.6807   -2.9766  -23.2363 C   0  0  0  0  0  0  0  0  0  0  0  0
   -9.6643   -1.9137  -23.5312 C   0  0  0  0  0  0  0  0  0  0  0  0
   -8.2218   -2.2843  -23.7105 C   0  0  0  0  0  0  0  0  0  0  0  0
   -7.7959   -3.7179  -23.5949 O   0  0  0  0  0  0  0  0  0  0  0  0
  -11.6180    3.5140  -23.9155 C   0  0  0  0  0  0  0  0  0  0  0  0
  -12.4184    3.6180  -22.6511 C   0  0  0  0  0  0  0  0  0  0  0  0
  -13.5974    4.5428  -22.5837 N   0  0  0  0  0  0  0  0  0  0  0  0
  -13.9761    5.3637  -23.7807 C   0  0  0  0  0  0  0  0  0  0  0  0
  -13.1757    5.2597  -25.0451 C   0  0  0  0  0  0  0  0  0  0  0  0
  -13.5544    6.0806  -26.2421 C   0  0  0  0  0  0  0  0  0  0  0  0
  -12.7540    5.9765  -27.5064 C   0  0  0  0  0  0  0  0  0  0  0  0
  -11.5750    5.0517  -27.5738 C   0  0  0  0  0  0  0  0  0  0  0  0
  -11.1963    4.2308  -26.3768 C   0  0  0  0  0  0  0  0  0  0  0  0
  -11.9967    4.3348  -25.1124 C   0  0  0  0  0  0  0  0  0  0  0  0
   -5.7630   -1.5920  -24.1847 C   0  0  0  0  0  0  0  0  0  0  0  0
   -5.8252   -3.5072  -27.6601 C   0  0  0  0  0  0  0  0  0  0  0  0
   -6.2869   -2.8918  -26.3724 N   0  0  0  0  0  0  0  0  0  0  0  0
   -5.3013   -2.2074  -25.4724 C   0  0  0  0  0  0  0  0  0  0  0  0
   -3.8538   -2.1385  -25.8600 O   0  0  0  0  0  0  0  0  0  0  0  0
   -7.2369   -2.9370  -26.1181 H   0  0  0  0  0  0  0  0  0  0  0  0
   -6.6939    1.6861  -24.4559 C   0  0  0  0  0  0  0  0  0  0  0  0
   -5.7579    2.3132  -23.4658 N   0  0  0  0  0  0  0  0  0  0  0  0
   -5.3730    1.7429  -22.1328 N   0  0  0  0  0  0  0  0  0  0  0  0
   -4.4196    2.6979  -21.4779 C   0  0  0  0  0  0  0  0  0  0  0  0
   -4.2152    3.8584  -22.4060 N   0  0  0  0  0  0  0  0  0  0  0  0
   -5.0423    3.6206  -23.6345 N   0  0  0  0  0  0  0  0  0  0  0  0
 29 30  1  0  0  0
 30 31  1  0  0  0
 31 32  2  0  0  0
 31 28  1  0  0  0
 28  1  1  0  0  0
  1  2  1  0  0  0
  3  2  1  0  0  0
  3  4  1  0  0  0
  4  5  2  0  0  0
  4  6  1  0  0  0
  6 18  1  0  0  0
 18 19  2  0  0  0
 19 20  1  0  0  0
 20 21  2  0  0  0
 21 22  1  0  0  0
 22 23  2  0  0  0
 23 24  1  0  0  0
 24 25  2  0  0  0
 25 26  1  0  0  0
 26 27  2  0  0  0
  6  7  1  0  0  0
  7  8  1  0  0  0
  8 34  1  0  0  0
 34 35  1  0  0  0
 35 36  1  0  0  0
 36 37  2  0  0  0
 37 38  1  0  0  0
 38 39  2  0  0  0
  3  9  1  0  0  0
  9 10  2  0  0  0
 10 11  1  0  0  0
 11 12  1  0  0  0
 11 13  2  0  0  0
 13 14  1  0  0  0
 14 15  2  0  0  0
 15 16  1  0  0  0
 16 17  2  0  0  0
 16  1  1  0  0  0
  8  3  1  0  0  0
 39 35  1  0  0  0
 15  9  1  0  0  0
 27 18  1  0  0  0
 27 22  1  0  0  0
 30 33  1  0  0  0
M  END
> <minimizedAffinity>
-7.11228

> <CNNscore>
0.6779657006

> <CNNaffinity>
6.9257102013

> <CNN_VS>
4.6953940392

> <CNNaffinity_variance>
0.1434402615

$$$$



 39 44  0  0  0  0  0  0  0  0999 V2000
   -7.0578   -2.1163  -23.1153 N   0  0  0  0  0  0  0  0  0  0  0  0
   -7.0963   -0.7146  -23.6479 C   0  0  0  0  0  0  0  0  0  0  0  0
   -8.4141   -0.0464  -23.9063 C   0  0  0  0  0  0  0  0  0  0  0  0
   -9.6498    0.7471  -24.2120 C   0  0  0  0  0  0  0  0  0  0  0  0
  -10.8593    0.6375  -24.1746 O   0  0  0  0  0  0  0  0  0  0  0  0
   -9.2230    2.0919  -24.7213 N   0  0  0  0  0  0  0  0  0  0  0  0
   -7.7235    2.1296  -24.7304 C   0  0  0  0  0  0  0  0  0  0  0  0
   -7.2236    0.8081  -24.2267 C   0  0  0  0  0  0  0  0  0  0  0  0
   -9.6935   -0.7799  -23.6322 C   0  0  0  0  0  0  0  0  0  0  0  0
  -11.0113   -0.1117  -23.8906 C   0  0  0  0  0  0  0  0  0  0  0  0
  -12.2906   -0.8452  -23.6165 C   0  0  0  0  0  0  0  0  0  0  0  0
  -13.6085   -0.1769  -23.8749 Cl  0  0  0  0  0  0  0  0  0  0  0  0
  -12.2522   -2.2469  -23.0839 C   0  0  0  0  0  0  0  0  0  0  0  0
  -10.9344   -2.9152  -22.8255 C   0  0  0  0  0  0  0  0  0  0  0  0
   -9.6551   -2.1816  -23.0996 C   0  0  0  0  0  0  0  0  0  0  0  0
   -8.3372   -2.8499  -22.8412 C   0  0  0  0  0  0  0  0  0  0  0  0
   -8.2987   -4.2516  -22.3086 O   0  0  0  0  0  0  0  0  0  0  0  0
  -10.1355    3.2037  -25.1469 C   0  0  0  0  0  0  0  0  0  0  0  0
   -9.9429    3.8634  -26.4802 C   0  0  0  0  0  0  0  0  0  0  0  0
  -10.8555    4.9752  -26.9057 N   0  0  0  0  0  0  0  0  0  0  0  0
  -11.9606    5.4274  -25.9979 C   0  0  0  0  0  0  0  0  0  0  0  0
  -12.1531    4.7678  -24.6645 C   0  0  0  0  0  0  0  0  0  0  0  0
  -13.2583    5.2201  -23.7566 C   0  0  0  0  0  0  0  0  0  0  0  0
  -13.4508    4.5604  -22.4233 C   0  0  0  0  0  0  0  0  0  0  0  0
  -12.5383    3.4486  -21.9978 C   0  0  0  0  0  0  0  0  0  0  0  0
  -11.4332    2.9963  -22.9056 C   0  0  0  0  0  0  0  0  0  0  0  0
  -11.2406    3.6560  -24.2390 C   0  0  0  0  0  0  0  0  0  0  0  0
   -5.7399   -2.7846  -22.8569 C   0  0  0  0  0  0  0  0  0  0  0  0
   -5.6270   -6.4252  -21.2811 C   0  0  0  0  0  0  0  0  0  0  0  0
   -5.7223   -5.3202  -22.2910 N   0  0  0  0  0  0  0  0  0  0  0  0
   -5.6446   -3.8896  -21.8470 C   0  0  0  0  0  0  0  0  0  0  0  0
   -5.4715   -3.5639  -20.3930 O   0  0  0  0  0  0  0  0  0  0  0  0
   -5.8359   -5.5339  -23.2453 H   0  0  0  0  0  0  0  0  0  0  0  0
   -5.7856    0.4108  -24.0708 C   0  0  0  0  0  0  0  0  0  0  0  0
   -5.0227    0.8209  -22.8462 N   0  0  0  0  0  0  0  0  0  0  0  0
   -5.3066    2.0202  -21.9911 N   0  0  0  0  0  0  0  0  0  0  0  0
   -4.3013    2.0444  -20.8781 C   0  0  0  0  0  0  0  0  0  0  0  0
   -3.3961    0.8600  -21.0453 N   0  0  0  0  0  0  0  0  0  0  0  0
   -3.8420    0.1039  -22.2616 N   0  0  0  0  0  0  0  0  0  0  0  0
 29 30  1  0  0  0
 30 31  1  0  0  0
 31 32  2  0  0  0
 31 28  1  0  0  0
 28  1  1  0  0  0
  1  2  1  0  0  0
  3  2  1  0  0  0
  3  4  1  0  0  0
  4  5  2  0  0  0
  4  6  1  0  0  0
  6 18  1  0  0  0
 18 19  2  0  0  0
 19 20  1  0  0  0
 20 21  2  0  0  0
 21 22  1  0  0  0
 22 23  2  0  0  0
 23 24  1  0  0  0
 24 25  2  0  0  0
 25 26  1  0  0  0
 26 27  2  0  0  0
  6  7  1  0  0  0
  7  8  1  0  0  0
  8 34  1  0  0  0
 34 35  1  0  0  0
 35 36  1  0  0  0
 36 37  2  0  0  0
 37 38  1  0  0  0
 38 39  2  0  0  0
  3  9  1  0  0  0
  9 10  2  0  0  0
 10 11  1  0  0  0
 11 12  1  0  0  0
 11 13  2  0  0  0
 13 14  1  0  0  0
 14 15  2  0  0  0
 15 16  1  0  0  0
 16 17  2  0  0  0
 16  1  1  0  0  0
  8  3  1  0  0  0
 39 35  1  0  0  0
 15  9  1  0  0  0
 27 18  1  0  0  0
 27 22  1  0  0  0
 30 33  1  0  0  0
M  END
> <minimizedAffinity>
-7.17142

> <CNNscore>
0.4542016983

> <CNNaffinity>
6.8980050087

> <CNN_VS>
3.1330854893

> <CNNaffinity_variance>
0.2031668127

$$$$



 39 44  0  0  0  0  0  0  0  0999 V2000
   -9.5463    2.9199  -24.6464 N   0  0  0  0  0  0  0  0  0  0  0  0
   -8.5650    1.7886  -24.7322 C   0  0  0  0  0  0  0  0  0  0  0  0
   -8.9917    0.3967  -24.3710 C   0  0  0  0  0  0  0  0  0  0  0  0
   -9.2718   -1.0401  -24.0440 C   0  0  0  0  0  0  0  0  0  0  0  0
  -10.1831   -1.7472  -23.6621 O   0  0  0  0  0  0  0  0  0  0  0  0
   -8.0112   -1.8212  -24.2697 N   0  0  0  0  0  0  0  0  0  0  0  0
   -6.9520   -0.8671  -24.7363 C   0  0  0  0  0  0  0  0  0  0  0  0
   -7.5580    0.5037  -24.7989 C   0  0  0  0  0  0  0  0  0  0  0  0
  -10.3996    0.1360  -23.9241 C   0  0  0  0  0  0  0  0  0  0  0  0
  -10.8263   -1.2559  -23.5629 C   0  0  0  0  0  0  0  0  0  0  0  0
  -12.2342   -1.5165  -23.1160 C   0  0  0  0  0  0  0  0  0  0  0  0
  -12.6609   -2.9085  -22.7548 Cl  0  0  0  0  0  0  0  0  0  0  0  0
  -13.2155   -0.3853  -23.0302 C   0  0  0  0  0  0  0  0  0  0  0  0
  -12.7888    1.0067  -23.3914 C   0  0  0  0  0  0  0  0  0  0  0  0
  -11.3809    1.2673  -23.8383 C   0  0  0  0  0  0  0  0  0  0  0  0
  -10.9542    2.6593  -24.1995 C   0  0  0  0  0  0  0  0  0  0  0  0
  -11.9354    3.7905  -24.1138 O   0  0  0  0  0  0  0  0  0  0  0  0
   -7.8400   -3.2973  -24.0648 C   0  0  0  0  0  0  0  0  0  0  0  0
   -7.1928   -3.8106  -22.8128 C   0  0  0  0  0  0  0  0  0  0  0  0
   -7.0216   -5.2866  -22.6079 N   0  0  0  0  0  0  0  0  0  0  0  0
   -7.4976   -6.2493  -23.6551 C   0  0  0  0  0  0  0  0  0  0  0  0
   -8.1448   -5.7360  -24.9072 C   0  0  0  0  0  0  0  0  0  0  0  0
   -8.6208   -6.6988  -25.9544 C   0  0  0  0  0  0  0  0  0  0  0  0
   -9.2680   -6.1853  -27.2064 C   0  0  0  0  0  0  0  0  0  0  0  0
   -9.4392   -4.7093  -27.4113 C   0  0  0  0  0  0  0  0  0  0  0  0
   -8.9632   -3.7466  -26.3641 C   0  0  0  0  0  0  0  0  0  0  0  0
   -8.3160   -4.2600  -25.1120 C   0  0  0  0  0  0  0  0  0  0  0  0
   -9.1195    4.3119  -25.0076 C   0  0  0  0  0  0  0  0  0  0  0  0
   -7.1181    5.5189  -21.8003 C   0  0  0  0  0  0  0  0  0  0  0  0
   -7.7138    4.6223  -22.8449 N   0  0  0  0  0  0  0  0  0  0  0  0
   -8.5237    5.2085  -23.9631 C   0  0  0  0  0  0  0  0  0  0  0  0
   -8.7379    6.6914  -24.0368 O   0  0  0  0  0  0  0  0  0  0  0  0
   -7.5733    3.6491  -22.7965 H   0  0  0  0  0  0  0  0  0  0  0  0
   -6.8538    1.7607  -25.2161 C   0  0  0  0  0  0  0  0  0  0  0  0
   -5.8670    2.4098  -24.2916 N   0  0  0  0  0  0  0  0  0  0  0  0
   -4.9935    3.5846  -24.6185 N   0  0  0  0  0  0  0  0  0  0  0  0
   -4.1671    3.8990  -23.4068 C   0  0  0  0  0  0  0  0  0  0  0  0
   -4.5297    2.9185  -22.3312 N   0  0  0  0  0  0  0  0  0  0  0  0
   -5.5803    1.9981  -22.8780 N   0  0  0  0  0  0  0  0  0  0  0  0
 29 30  1  0  0  0
 30 31  1  0  0  0
 31 32  2  0  0  0
 31 28  1  0  0  0
 28  1  1  0  0  0
  1  2  1  0  0  0
  3  2  1  0  0  0
  3  4  1  0  0  0
  4  5  2  0  0  0
  4  6  1  0  0  0
  6 18  1  0  0  0
 18 19  2  0  0  0
 19 20  1  0  0  0
 20 21  2  0  0  0
 21 22  1  0  0  0
 22 23  2  0  0  0
 23 24  1  0  0  0
 24 25  2  0  0  0
 25 26  1  0  0  0
 26 27  2  0  0  0
  6  7  1  0  0  0
  7  8  1  0  0  0
  8 34  1  0  0  0
 34 35  1  0  0  0
 35 36  1  0  0  0
 36 37  2  0  0  0
 37 38  1  0  0  0
 38 39  2  0  0  0
  3  9  1  0  0  0
  9 10  2  0  0  0
 10 11  1  0  0  0
 11 12  1  0  0  0
 11 13  2  0  0  0
 13 14  1  0  0  0
 14 15  2  0  0  0
 15 16  1  0  0  0
 16 17  2  0  0  0
 16  1  1  0  0  0
  8  3  1  0  0  0
 39 35  1  0  0  0
 15  9  1  0  0  0
 27 18  1  0  0  0
 27 22  1  0  0  0
 30 33  1  0  0  0
M  END
> <minimizedAffinity>
-7.30243

> <CNNscore>
0.2807325125

> <CNNaffinity>
6.5320243835

> <CNN_VS>
1.8337515593

> <CNNaffinity_variance>
0.1781541705

$$$$



 39 44  0  0  0  0  0  0  0  0999 V2000
  -10.4397    3.5240  -24.0906 N   0  0  0  0  0  0  0  0  0  0  0  0
   -9.1995    2.6822  -24.0341 C   0  0  0  0  0  0  0  0  0  0  0  0
   -9.3049    1.2078  -23.7793 C   0  0  0  0  0  0  0  0  0  0  0  0
   -9.2536   -0.2712  -23.5344 C   0  0  0  0  0  0  0  0  0  0  0  0
  -10.0005   -1.2067  -23.3262 O   0  0  0  0  0  0  0  0  0  0  0  0
   -7.8152   -0.6960  -23.5615 N   0  0  0  0  0  0  0  0  0  0  0  0
   -6.9776    0.5205  -23.8231 C   0  0  0  0  0  0  0  0  0  0  0  0
   -7.8982    1.6971  -23.9577 C   0  0  0  0  0  0  0  0  0  0  0  0
  -10.6505    0.5751  -23.5810 C   0  0  0  0  0  0  0  0  0  0  0  0
  -10.7558   -0.8993  -23.3262 C   0  0  0  0  0  0  0  0  0  0  0  0
  -12.1014   -1.5318  -23.1279 C   0  0  0  0  0  0  0  0  0  0  0  0
  -12.2068   -3.0063  -22.8731 Cl  0  0  0  0  0  0  0  0  0  0  0  0
  -13.3416   -0.6899  -23.1844 C   0  0  0  0  0  0  0  0  0  0  0  0
  -13.2362    0.7845  -23.4392 C   0  0  0  0  0  0  0  0  0  0  0  0
  -11.8907    1.4170  -23.6375 C   0  0  0  0  0  0  0  0  0  0  0  0
  -11.7853    2.8915  -23.8923 C   0  0  0  0  0  0  0  0  0  0  0  0
  -13.0255    3.7334  -23.9488 O   0  0  0  0  0  0  0  0  0  0  0  0
   -7.3043   -2.0921  -23.3620 C   0  0  0  0  0  0  0  0  0  0  0  0
   -6.7060   -2.4909  -22.0456 C   0  0  0  0  0  0  0  0  0  0  0  0
   -6.1951   -3.8870  -21.8461 N   0  0  0  0  0  0  0  0  0  0  0  0
   -6.2825   -4.8843  -22.9631 C   0  0  0  0  0  0  0  0  0  0  0  0
   -6.8808   -4.4856  -24.2795 C   0  0  0  0  0  0  0  0  0  0  0  0
   -6.9682   -5.4830  -25.3965 C   0  0  0  0  0  0  0  0  0  0  0  0
   -7.5666   -5.0841  -26.7129 C   0  0  0  0  0  0  0  0  0  0  0  0
   -8.0775   -3.6880  -26.9124 C   0  0  0  0  0  0  0  0  0  0  0  0
   -7.9901   -2.6907  -25.7955 C   0  0  0  0  0  0  0  0  0  0  0  0
   -7.3917   -3.0894  -24.4790 C   0  0  0  0  0  0  0  0  0  0  0  0
  -10.3343    4.9985  -24.3454 C   0  0  0  0  0  0  0  0  0  0  0  0
  -12.9321    6.7325  -26.7938 C   0  0  0  0  0  0  0  0  0  0  0  0
  -12.3307    6.1408  -25.5536 N   0  0  0  0  0  0  0  0  0  0  0  0
  -10.9358    5.5902  -25.5856 C   0  0  0  0  0  0  0  0  0  0  0  0
  -10.1423    5.6312  -26.8580 O   0  0  0  0  0  0  0  0  0  0  0  0
  -12.8514    6.1139  -24.7185 H   0  0  0  0  0  0  0  0  0  0  0  0
   -7.4847    3.1142  -24.2239 C   0  0  0  0  0  0  0  0  0  0  0  0
   -6.1214    3.5871  -23.8149 N   0  0  0  0  0  0  0  0  0  0  0  0
   -4.8997    3.6140  -24.6848 N   0  0  0  0  0  0  0  0  0  0  0  0
   -3.7635    4.1598  -23.8717 C   0  0  0  0  0  0  0  0  0  0  0  0
   -4.2830    4.4702  -22.4992 N   0  0  0  0  0  0  0  0  0  0  0  0
   -5.7402    4.1163  -22.4641 N   0  0  0  0  0  0  0  0  0  0  0  0
 29 30  1  0  0  0
 30 31  1  0  0  0
 31 32  2  0  0  0
 31 28  1  0  0  0
 28  1  1  0  0  0
  1  2  1  0  0  0
  3  2  1  0  0  0
  3  4  1  0  0  0
  4  5  2  0  0  0
  4  6  1  0  0  0
  6 18  1  0  0  0
 18 19  2  0  0  0
 19 20  1  0  0  0
 20 21  2  0  0  0
 21 22  1  0  0  0
 22 23  2  0  0  0
 23 24  1  0  0  0
 24 25  2  0  0  0
 25 26  1  0  0  0
 26 27  2  0  0  0
  6  7  1  0  0  0
  7  8  1  0  0  0
  8 34  1  0  0  0
 34 35  1  0  0  0
 35 36  1  0  0  0
 36 37  2  0  0  0
 37 38  1  0  0  0
 38 39  2  0  0  0
  3  9  1  0  0  0
  9 10  2  0  0  0
 10 11  1  0  0  0
 11 12  1  0  0  0
 11 13  2  0  0  0
 13 14  1  0  0  0
 14 15  2  0  0  0
 15 16  1  0  0  0
 16 17  2  0  0  0
 16  1  1  0  0  0
  8  3  1  0  0  0
 39 35  1  0  0  0
 15  9  1  0  0  0
 27 18  1  0  0  0
 27 22  1  0  0  0
 30 33  1  0  0  0
M  END
> <minimizedAffinity>
-6.99872

> <CNNscore>
0.2584515512

> <CNNaffinity>
6.4689955711

> <CNN_VS>
1.6719219685

> <CNNaffinity_variance>
0.4275900722

$$$$



 39 44  0  0  0  0  0  0  0  0999 V2000
   -5.8622   -4.2754  -21.6205 N   0  0  0  0  0  0  0  0  0  0  0  0
   -6.3257   -3.7921  -22.9627 C   0  0  0  0  0  0  0  0  0  0  0  0
   -6.3678   -2.3219  -23.2570 C   0  0  0  0  0  0  0  0  0  0  0  0
   -6.4630   -0.8902  -23.6940 C   0  0  0  0  0  0  0  0  0  0  0  0
   -6.2598    0.2289  -23.2666 O   0  0  0  0  0  0  0  0  0  0  0  0
   -6.9716   -0.8689  -25.1050 N   0  0  0  0  0  0  0  0  0  0  0  0
   -7.1906   -2.2876  -25.5401 C   0  0  0  0  0  0  0  0  0  0  0  0
   -6.8175   -3.1856  -24.3980 C   0  0  0  0  0  0  0  0  0  0  0  0
   -5.9463   -1.3349  -22.2090 C   0  0  0  0  0  0  0  0  0  0  0  0
   -5.9884    0.1353  -22.5033 C   0  0  0  0  0  0  0  0  0  0  0  0
   -5.5669    1.1223  -21.4554 C   0  0  0  0  0  0  0  0  0  0  0  0
   -5.6090    2.5926  -21.7497 Cl  0  0  0  0  0  0  0  0  0  0  0  0
   -5.1034    0.6390  -20.1132 C   0  0  0  0  0  0  0  0  0  0  0  0
   -5.0613   -0.8312  -19.8188 C   0  0  0  0  0  0  0  0  0  0  0  0
   -5.4828   -1.8181  -20.8668 C   0  0  0  0  0  0  0  0  0  0  0  0
   -5.4407   -3.2884  -20.5725 C   0  0  0  0  0  0  0  0  0  0  0  0
   -4.9772   -3.7717  -19.2303 O   0  0  0  0  0  0  0  0  0  0  0  0
   -7.2178    0.3559  -25.9351 C   0  0  0  0  0  0  0  0  0  0  0  0
   -8.5064    1.1107  -25.7944 C   0  0  0  0  0  0  0  0  0  0  0  0
   -8.7526    2.3356  -26.6245 N   0  0  0  0  0  0  0  0  0  0  0  0
   -7.7103    2.8056  -27.5953 C   0  0  0  0  0  0  0  0  0  0  0  0
   -6.4217    2.0508  -27.7360 C   0  0  0  0  0  0  0  0  0  0  0  0
   -5.3793    2.5209  -28.7069 C   0  0  0  0  0  0  0  0  0  0  0  0
   -4.0907    1.7660  -28.8475 C   0  0  0  0  0  0  0  0  0  0  0  0
   -3.8445    0.5411  -28.0174 C   0  0  0  0  0  0  0  0  0  0  0  0
   -4.8868    0.0711  -27.0466 C   0  0  0  0  0  0  0  0  0  0  0  0
   -6.1754    0.8259  -26.9059 C   0  0  0  0  0  0  0  0  0  0  0  0
   -5.8201   -5.7457  -21.3262 C   0  0  0  0  0  0  0  0  0  0  0  0
   -3.5924   -7.4931  -24.1072 C   0  0  0  0  0  0  0  0  0  0  0  0
   -4.0400   -6.5289  -23.0488 N   0  0  0  0  0  0  0  0  0  0  0  0
   -5.3726   -6.7099  -22.3845 C   0  0  0  0  0  0  0  0  0  0  0  0
   -6.2577   -7.8551  -22.7785 O   0  0  0  0  0  0  0  0  0  0  0  0
   -3.4591   -5.7773  -22.7902 H   0  0  0  0  0  0  0  0  0  0  0  0
   -6.8826   -4.6842  -24.3971 C   0  0  0  0  0  0  0  0  0  0  0  0
   -7.7116   -5.3996  -25.4221 N   0  0  0  0  0  0  0  0  0  0  0  0
   -9.0366   -4.9444  -25.9581 N   0  0  0  0  0  0  0  0  0  0  0  0
   -9.5053   -5.9592  -26.9584 C   0  0  0  0  0  0  0  0  0  0  0  0
   -8.4700   -7.0415  -27.0406 N   0  0  0  0  0  0  0  0  0  0  0  0
   -7.3615   -6.6956  -26.0911 N   0  0  0  0  0  0  0  0  0  0  0  0
 29 30  1  0  0  0
 30 31  1  0  0  0
 31 32  2  0  0  0
 31 28  1  0  0  0
 28  1  1  0  0  0
  1  2  1  0  0  0
  3  2  1  0  0  0
  3  4  1  0  0  0
  4  5  2  0  0  0
  4  6  1  0  0  0
  6 18  1  0  0  0
 18 19  2  0  0  0
 19 20  1  0  0  0
 20 21  2  0  0  0
 21 22  1  0  0  0
 22 23  2  0  0  0
 23 24  1  0  0  0
 24 25  2  0  0  0
 25 26  1  0  0  0
 26 27  2  0  0  0
  6  7  1  0  0  0
  7  8  1  0  0  0
  8 34  1  0  0  0
 34 35  1  0  0  0
 35 36  1  0  0  0
 36 37  2  0  0  0
 37 38  1  0  0  0
 38 39  2  0  0  0
  3  9  1  0  0  0
  9 10  2  0  0  0
 10 11  1  0  0  0
 11 12  1  0  0  0
 11 13  2  0  0  0
 13 14  1  0  0  0
 14 15  2  0  0  0
 15 16  1  0  0  0
 16 17  2  0  0  0
 16  1  1  0  0  0
  8  3  1  0  0  0
 39 35  1  0  0  0
 15  9  1  0  0  0
 27 18  1  0  0  0
 27 22  1  0  0  0
 30 33  1  0  0  0
M  END
> <minimizedAffinity>
-7.25206

> <CNNscore>
0.2506197095

> <CNNaffinity>
6.5205125809

> <CNN_VS>
1.6341689825

> <CNNaffinity_variance>
0.2265996486

$$$$



 39 44  0  0  0  0  0  0  0  0999 V2000
   -9.6555   -2.1714  -23.6086 N   0  0  0  0  0  0  0  0  0  0  0  0
   -8.2920   -2.2503  -22.9884 C   0  0  0  0  0  0  0  0  0  0  0  0
   -7.5391   -0.9927  -22.6698 C   0  0  0  0  0  0  0  0  0  0  0  0
   -6.6712    0.1726  -22.2974 C   0  0  0  0  0  0  0  0  0  0  0  0
   -6.6818    1.3874  -22.3245 O   0  0  0  0  0  0  0  0  0  0  0  0
   -5.3998   -0.3651  -21.7106 N   0  0  0  0  0  0  0  0  0  0  0  0
   -5.4819   -1.8629  -21.7204 C   0  0  0  0  0  0  0  0  0  0  0  0
   -6.8041   -2.2507  -22.3132 C   0  0  0  0  0  0  0  0  0  0  0  0
   -8.1497    0.3439  -22.9714 C   0  0  0  0  0  0  0  0  0  0  0  0
   -7.3968    1.6015  -22.6529 C   0  0  0  0  0  0  0  0  0  0  0  0
   -8.0074    2.9379  -22.9545 C   0  0  0  0  0  0  0  0  0  0  0  0
   -7.2545    4.1956  -22.6359 Cl  0  0  0  0  0  0  0  0  0  0  0  0
   -9.3709    3.0168  -23.5746 C   0  0  0  0  0  0  0  0  0  0  0  0
  -10.1238    1.7592  -23.8932 C   0  0  0  0  0  0  0  0  0  0  0  0
   -9.5132    0.4227  -23.5916 C   0  0  0  0  0  0  0  0  0  0  0  0
  -10.2661   -0.8349  -23.9102 C   0  0  0  0  0  0  0  0  0  0  0  0
  -11.6297   -0.7561  -24.5304 O   0  0  0  0  0  0  0  0  0  0  0  0
   -4.2484    0.4514  -21.2031 C   0  0  0  0  0  0  0  0  0  0  0  0
   -4.2330    0.9224  -19.7790 C   0  0  0  0  0  0  0  0  0  0  0  0
   -3.0816    1.7390  -19.2715 N   0  0  0  0  0  0  0  0  0  0  0  0
   -1.9457    2.0845  -20.1881 C   0  0  0  0  0  0  0  0  0  0  0  0
   -1.9611    1.6135  -21.6122 C   0  0  0  0  0  0  0  0  0  0  0  0
   -0.8250    1.9592  -22.5288 C   0  0  0  0  0  0  0  0  0  0  0  0
   -0.8405    1.4881  -23.9528 C   0  0  0  0  0  0  0  0  0  0  0  0
   -1.9919    0.6716  -24.4603 C   0  0  0  0  0  0  0  0  0  0  0  0
   -3.1279    0.3260  -23.5437 C   0  0  0  0  0  0  0  0  0  0  0  0
   -3.1125    0.7970  -22.1197 C   0  0  0  0  0  0  0  0  0  0  0  0
  -10.4085   -3.4291  -23.9272 C   0  0  0  0  0  0  0  0  0  0  0  0
  -10.4849   -6.1454  -26.8196 C   0  0  0  0  0  0  0  0  0  0  0  0
  -10.6245   -5.5096  -25.4681 N   0  0  0  0  0  0  0  0  0  0  0  0
  -10.2689   -4.0648  -25.2786 C   0  0  0  0  0  0  0  0  0  0  0  0
   -9.7736   -3.2556  -26.4405 O   0  0  0  0  0  0  0  0  0  0  0  0
  -10.9495   -6.0407  -24.7055 H   0  0  0  0  0  0  0  0  0  0  0  0
   -7.3036   -3.6507  -22.5142 C   0  0  0  0  0  0  0  0  0  0  0  0
   -6.3285   -4.7795  -22.6722 N   0  0  0  0  0  0  0  0  0  0  0  0
   -6.0512   -5.5341  -23.9386 N   0  0  0  0  0  0  0  0  0  0  0  0
   -5.0109   -6.5729  -23.6408 C   0  0  0  0  0  0  0  0  0  0  0  0
   -4.6452   -6.4602  -22.1904 N   0  0  0  0  0  0  0  0  0  0  0  0
   -5.4595   -5.3518  -21.5919 N   0  0  0  0  0  0  0  0  0  0  0  0
 29 30  1  0  0  0
 30 31  1  0  0  0
 31 32  2  0  0  0
 31 28  1  0  0  0
 28  1  1  0  0  0
  1  2  1  0  0  0
  3  2  1  0  0  0
  3  4  1  0  0  0
  4  5  2  0  0  0
  4  6  1  0  0  0
  6 18  1  0  0  0
 18 19  2  0  0  0
 19 20  1  0  0  0
 20 21  2  0  0  0
 21 22  1  0  0  0
 22 23  2  0  0  0
 23 24  1  0  0  0
 24 25  2  0  0  0
 25 26  1  0  0  0
 26 27  2  0  0  0
  6  7  1  0  0  0
  7  8  1  0  0  0
  8 34  1  0  0  0
 34 35  1  0  0  0
 35 36  1  0  0  0
 36 37  2  0  0  0
 37 38  1  0  0  0
 38 39  2  0  0  0
  3  9  1  0  0  0
  9 10  2  0  0  0
 10 11  1  0  0  0
 11 12  1  0  0  0
 11 13  2  0  0  0
 13 14  1  0  0  0
 14 15  2  0  0  0
 15 16  1  0  0  0
 16 17  2  0  0  0
 16  1  1  0  0  0
  8  3  1  0  0  0
 39 35  1  0  0  0
 15  9  1  0  0  0
 27 18  1  0  0  0
 27 22  1  0  0  0
 30 33  1  0  0  0
M  END
> <minimizedAffinity>
-8.09568

> <CNNscore>
0.2358087003

> <CNNaffinity>
6.4654860497

> <CNN_VS>
1.5246179104

> <CNNaffinity_variance>
0.1165307611

$$$$



 39 44  0  0  0  0  0  0  0  0999 V2000
   -7.6345   -4.0283  -22.8830 N   0  0  0  0  0  0  0  0  0  0  0  0
   -8.7625   -3.1835  -23.3967 C   0  0  0  0  0  0  0  0  0  0  0  0
   -8.7146   -1.6926  -23.2398 C   0  0  0  0  0  0  0  0  0  0  0  0
   -8.8061   -0.1977  -23.1553 C   0  0  0  0  0  0  0  0  0  0  0  0
   -8.1715    0.7516  -22.7402 O   0  0  0  0  0  0  0  0  0  0  0  0
  -10.0972    0.2244  -23.7915 N   0  0  0  0  0  0  0  0  0  0  0  0
  -10.8038   -1.0095  -24.2693 C   0  0  0  0  0  0  0  0  0  0  0  0
   -9.9493   -2.1942  -23.9283 C   0  0  0  0  0  0  0  0  0  0  0  0
   -7.5388   -1.0463  -22.5692 C   0  0  0  0  0  0  0  0  0  0  0  0
   -7.4909    0.4447  -22.4123 C   0  0  0  0  0  0  0  0  0  0  0  0
   -6.3151    1.0909  -21.7417 C   0  0  0  0  0  0  0  0  0  0  0  0
   -6.2672    2.5819  -21.5848 Cl  0  0  0  0  0  0  0  0  0  0  0  0
   -5.1871    0.2461  -21.2279 C   0  0  0  0  0  0  0  0  0  0  0  0
   -5.2349   -1.2449  -21.3848 C   0  0  0  0  0  0  0  0  0  0  0  0
   -6.4108   -1.8911  -22.0554 C   0  0  0  0  0  0  0  0  0  0  0  0
   -6.4586   -3.3821  -22.2124 C   0  0  0  0  0  0  0  0  0  0  0  0
   -5.3306   -4.2269  -21.6986 O   0  0  0  0  0  0  0  0  0  0  0  0
  -10.5945    1.6332  -23.9263 C   0  0  0  0  0  0  0  0  0  0  0  0
  -11.6527    2.1473  -22.9958 C   0  0  0  0  0  0  0  0  0  0  0  0
  -12.1500    3.5560  -23.1306 N   0  0  0  0  0  0  0  0  0  0  0  0
  -11.5890    4.4507  -24.1959 C   0  0  0  0  0  0  0  0  0  0  0  0
  -10.5308    3.9365  -25.1264 C   0  0  0  0  0  0  0  0  0  0  0  0
   -9.9698    4.8312  -26.1918 C   0  0  0  0  0  0  0  0  0  0  0  0
   -8.9116    4.3170  -27.1223 C   0  0  0  0  0  0  0  0  0  0  0  0
   -8.4144    2.9083  -26.9875 C   0  0  0  0  0  0  0  0  0  0  0  0
   -8.9753    2.0137  -25.9222 C   0  0  0  0  0  0  0  0  0  0  0  0
  -10.0335    2.5278  -24.9916 C   0  0  0  0  0  0  0  0  0  0  0  0
   -7.6824   -5.5194  -23.0399 C   0  0  0  0  0  0  0  0  0  0  0  0
   -4.1039   -7.1329  -23.6237 C   0  0  0  0  0  0  0  0  0  0  0  0
   -5.3428   -6.3157  -23.8412 N   0  0  0  0  0  0  0  0  0  0  0  0
   -6.4435   -6.3366  -22.8224 C   0  0  0  0  0  0  0  0  0  0  0  0
   -6.3053   -7.1746  -21.5860 O   0  0  0  0  0  0  0  0  0  0  0  0
   -5.4336   -5.7657  -24.6527 H   0  0  0  0  0  0  0  0  0  0  0  0
  -10.2727   -3.6288  -24.2240 C   0  0  0  0  0  0  0  0  0  0  0  0
  -10.0488   -4.1797  -25.6010 N   0  0  0  0  0  0  0  0  0  0  0  0
  -10.2738   -5.5994  -26.0299 N   0  0  0  0  0  0  0  0  0  0  0  0
   -9.9248   -5.7049  -27.4849 C   0  0  0  0  0  0  0  0  0  0  0  0
   -9.4841   -4.3504  -27.9552 N   0  0  0  0  0  0  0  0  0  0  0  0
   -9.5608   -3.4079  -26.7909 N   0  0  0  0  0  0  0  0  0  0  0  0
 29 30  1  0  0  0
 30 31  1  0  0  0
 31 32  2  0  0  0
 31 28  1  0  0  0
 28  1  1  0  0  0
  1  2  1  0  0  0
  3  2  1  0  0  0
  3  4  1  0  0  0
  4  5  2  0  0  0
  4  6  1  0  0  0
  6 18  1  0  0  0
 18 19  2  0  0  0
 19 20  1  0  0  0
 20 21  2  0  0  0
 21 22  1  0  0  0
 22 23  2  0  0  0
 23 24  1  0  0  0
 24 25  2  0  0  0
 25 26  1  0  0  0
 26 27  2  0  0  0
  6  7  1  0  0  0
  7  8  1  0  0  0
  8 34  1  0  0  0
 34 35  1  0  0  0
 35 36  1  0  0  0
 36 37  2  0  0  0
 37 38  1  0  0  0
 38 39  2  0  0  0
  3  9  1  0  0  0
  9 10  2  0  0  0
 10 11  1  0  0  0
 11 12  1  0  0  0
 11 13  2  0  0  0
 13 14  1  0  0  0
 14 15  2  0  0  0
 15 16  1  0  0  0
 16 17  2  0  0  0
 16  1  1  0  0  0
  8  3  1  0  0  0
 39 35  1  0  0  0
 15  9  1  0  0  0
 27 18  1  0  0  0
 27 22  1  0  0  0
 30 33  1  0  0  0
M  END
> <minimizedAffinity>
-7.71317

> <CNNscore>
0.2063659281

> <CNNaffinity>
6.4249243736

> <CNN_VS>
1.3258855343

> <CNNaffinity_variance>
0.1510794312

$$$$



 39 44  0  0  0  0  0  0  0  0999 V2000
   -7.3261   -3.6731  -22.5240 N   0  0  0  0  0  0  0  0  0  0  0  0
   -8.3172   -2.8395  -23.2809 C   0  0  0  0  0  0  0  0  0  0  0  0
   -8.1870   -1.3452  -23.2920 C   0  0  0  0  0  0  0  0  0  0  0  0
   -8.1851    0.1513  -23.3937 C   0  0  0  0  0  0  0  0  0  0  0  0
   -7.5453    1.1096  -23.0082 O   0  0  0  0  0  0  0  0  0  0  0  0
   -9.3509    0.5597  -24.2446 N   0  0  0  0  0  0  0  0  0  0  0  0
  -10.0735   -0.6845  -24.6688 C   0  0  0  0  0  0  0  0  0  0  0  0
   -9.3541   -1.8618  -24.0800 C   0  0  0  0  0  0  0  0  0  0  0  0
   -7.0657   -0.6845  -22.5462 C   0  0  0  0  0  0  0  0  0  0  0  0
   -6.9356    0.8098  -22.5572 C   0  0  0  0  0  0  0  0  0  0  0  0
   -5.8143    1.4705  -21.8115 C   0  0  0  0  0  0  0  0  0  0  0  0
   -5.6841    2.9648  -21.8225 Cl  0  0  0  0  0  0  0  0  0  0  0  0
   -4.8232    0.6369  -21.0546 C   0  0  0  0  0  0  0  0  0  0  0  0
   -4.9534   -0.8574  -21.0435 C   0  0  0  0  0  0  0  0  0  0  0  0
   -6.0746   -1.5181  -21.7893 C   0  0  0  0  0  0  0  0  0  0  0  0
   -6.2048   -3.0124  -21.7782 C   0  0  0  0  0  0  0  0  0  0  0  0
   -5.2138   -3.8460  -21.0213 O   0  0  0  0  0  0  0  0  0  0  0  0
   -9.7280    1.9654  -24.6076 C   0  0  0  0  0  0  0  0  0  0  0  0
   -8.9664    2.6945  -25.6745 C   0  0  0  0  0  0  0  0  0  0  0  0
   -9.3435    4.1002  -26.0374 N   0  0  0  0  0  0  0  0  0  0  0  0
  -10.4822    4.7768  -25.3335 C   0  0  0  0  0  0  0  0  0  0  0  0
  -11.2438    4.0476  -24.2666 C   0  0  0  0  0  0  0  0  0  0  0  0
  -12.3826    4.7242  -23.5627 C   0  0  0  0  0  0  0  0  0  0  0  0
  -13.1442    3.9950  -22.4958 C   0  0  0  0  0  0  0  0  0  0  0  0
  -12.7671    2.5893  -22.1328 C   0  0  0  0  0  0  0  0  0  0  0  0
  -11.6284    1.9127  -22.8367 C   0  0  0  0  0  0  0  0  0  0  0  0
  -10.8667    2.6419  -23.9036 C   0  0  0  0  0  0  0  0  0  0  0  0
   -7.4563   -5.1674  -22.5129 C   0  0  0  0  0  0  0  0  0  0  0  0
   -3.9423   -6.7105  -23.5232 C   0  0  0  0  0  0  0  0  0  0  0  0
   -5.1713   -5.8507  -23.5433 N   0  0  0  0  0  0  0  0  0  0  0  0
   -6.2273   -6.0272  -22.4928 C   0  0  0  0  0  0  0  0  0  0  0  0
   -6.0544   -7.0635  -21.4221 O   0  0  0  0  0  0  0  0  0  0  0  0
   -5.2848   -5.1706  -24.2460 H   0  0  0  0  0  0  0  0  0  0  0  0
   -9.7350   -3.3027  -24.2496 C   0  0  0  0  0  0  0  0  0  0  0  0
   -9.6839   -3.9372  -25.6077 N   0  0  0  0  0  0  0  0  0  0  0  0
  -10.0336   -5.3599  -25.9299 N   0  0  0  0  0  0  0  0  0  0  0  0
   -9.8399   -5.5625  -27.4035 C   0  0  0  0  0  0  0  0  0  0  0  0
   -9.3706   -4.2651  -27.9920 N   0  0  0  0  0  0  0  0  0  0  0  0
   -9.2742   -3.2606  -26.8822 N   0  0  0  0  0  0  0  0  0  0  0  0
 29 30  1  0  0  0
 30 31  1  0  0  0
 31 32  2  0  0  0
 31 28  1  0  0  0
 28  1  1  0  0  0
  1  2  1  0  0  0
  3  2  1  0  0  0
  3  4  1  0  0  0
  4  5  2  0  0  0
  4  6  1  0  0  0
  6 18  1  0  0  0
 18 19  2  0  0  0
 19 20  1  0  0  0
 20 21  2  0  0  0
 21 22  1  0  0  0
 22 23  2  0  0  0
 23 24  1  0  0  0
 24 25  2  0  0  0
 25 26  1  0  0  0
 26 27  2  0  0  0
  6  7  1  0  0  0
  7  8  1  0  0  0
  8 34  1  0  0  0
 34 35  1  0  0  0
 35 36  1  0  0  0
 36 37  2  0  0  0
 37 38  1  0  0  0
 38 39  2  0  0  0
  3  9  1  0  0  0
  9 10  2  0  0  0
 10 11  1  0  0  0
 11 12  1  0  0  0
 11 13  2  0  0  0
 13 14  1  0  0  0
 14 15  2  0  0  0
 15 16  1  0  0  0
 16 17  2  0  0  0
 16  1  1  0  0  0
  8  3  1  0  0  0
 39 35  1  0  0  0
 15  9  1  0  0  0
 27 18  1  0  0  0
 27 22  1  0  0  0
 30 33  1  0  0  0
M  END
> <minimizedAffinity>
-8.24375

> <CNNscore>
0.1951758415

> <CNNaffinity>
6.3760943413

> <CNN_VS>
1.2444596291

> <CNNaffinity_variance>
0.1689087301

$$$$



 39 44  0  0  0  0  0  0  0  0999 V2000
   -7.4749   -3.1106  -23.4626 N   0  0  0  0  0  0  0  0  0  0  0  0
   -7.6381   -1.7346  -22.8881 C   0  0  0  0  0  0  0  0  0  0  0  0
   -7.7365   -0.5479  -23.8002 C   0  0  0  0  0  0  0  0  0  0  0  0
   -7.8482    0.7268  -24.5830 C   0  0  0  0  0  0  0  0  0  0  0  0
   -7.8546    1.1144  -25.7345 O   0  0  0  0  0  0  0  0  0  0  0  0
   -7.9974    1.8575  -23.6087 N   0  0  0  0  0  0  0  0  0  0  0  0
   -7.9780    1.2817  -22.2238 C   0  0  0  0  0  0  0  0  0  0  0  0
   -7.8168   -0.2049  -22.3422 C   0  0  0  0  0  0  0  0  0  0  0  0
   -7.6717   -0.7371  -25.2869 C   0  0  0  0  0  0  0  0  0  0  0  0
   -7.7701    0.4496  -26.1990 C   0  0  0  0  0  0  0  0  0  0  0  0
   -7.7053    0.2602  -27.6856 C   0  0  0  0  0  0  0  0  0  0  0  0
   -7.8037    1.4470  -28.5978 Cl  0  0  0  0  0  0  0  0  0  0  0  0
   -7.5421   -1.1158  -28.2600 C   0  0  0  0  0  0  0  0  0  0  0  0
   -7.4437   -2.3024  -27.3479 C   0  0  0  0  0  0  0  0  0  0  0  0
   -7.5085   -2.1131  -25.8613 C   0  0  0  0  0  0  0  0  0  0  0  0
   -7.4101   -3.2999  -24.9491 C   0  0  0  0  0  0  0  0  0  0  0  0
   -7.2469   -4.6759  -25.5236 O   0  0  0  0  0  0  0  0  0  0  0  0
   -8.1408    3.3092  -23.9581 C   0  0  0  0  0  0  0  0  0  0  0  0
   -6.9248    4.1829  -24.0474 C   0  0  0  0  0  0  0  0  0  0  0  0
   -7.0682    5.6346  -24.3968 N   0  0  0  0  0  0  0  0  0  0  0  0
   -8.4277    6.2126  -24.6567 C   0  0  0  0  0  0  0  0  0  0  0  0
   -9.6438    5.3389  -24.5674 C   0  0  0  0  0  0  0  0  0  0  0  0
  -11.0034    5.9170  -24.8274 C   0  0  0  0  0  0  0  0  0  0  0  0
  -12.2194    5.0433  -24.7380 C   0  0  0  0  0  0  0  0  0  0  0  0
  -12.0759    3.5916  -24.3887 C   0  0  0  0  0  0  0  0  0  0  0  0
  -10.7164    3.0136  -24.1287 C   0  0  0  0  0  0  0  0  0  0  0  0
   -9.5003    3.8872  -24.2180 C   0  0  0  0  0  0  0  0  0  0  0  0
   -7.3765   -4.2973  -22.5503 C   0  0  0  0  0  0  0  0  0  0  0  0
   -4.1562   -6.5516  -23.0960 C   0  0  0  0  0  0  0  0  0  0  0  0
   -5.4844   -5.8963  -23.3335 N   0  0  0  0  0  0  0  0  0  0  0  0
   -6.0483   -4.9526  -22.3129 C   0  0  0  0  0  0  0  0  0  0  0  0
   -5.2839   -4.6643  -21.0548 O   0  0  0  0  0  0  0  0  0  0  0  0
   -5.9861   -6.0855  -24.1591 H   0  0  0  0  0  0  0  0  0  0  0  0
   -7.7479   -1.1778  -21.2025 C   0  0  0  0  0  0  0  0  0  0  0  0
   -6.8124   -0.9265  -20.0574 N   0  0  0  0  0  0  0  0  0  0  0  0
   -5.6563    0.0293  -20.0568 N   0  0  0  0  0  0  0  0  0  0  0  0
   -4.9980   -0.0403  -18.7108 C   0  0  0  0  0  0  0  0  0  0  0  0
   -5.7472   -1.0391  -17.8794 N   0  0  0  0  0  0  0  0  0  0  0  0
   -6.8685   -1.5867  -18.7117 N   0  0  0  0  0  0  0  0  0  0  0  0
 29 30  1  0  0  0
 30 31  1  0  0  0
 31 32  2  0  0  0
 31 28  1  0  0  0
 28  1  1  0  0  0
  1  2  1  0  0  0
  3  2  1  0  0  0
  3  4  1  0  0  0
  4  5  2  0  0  0
  4  6  1  0  0  0
  6 18  1  0  0  0
 18 19  2  0  0  0
 19 20  1  0  0  0
 20 21  2  0  0  0
 21 22  1  0  0  0
 22 23  2  0  0  0
 23 24  1  0  0  0
 24 25  2  0  0  0
 25 26  1  0  0  0
 26 27  2  0  0  0
  6  7  1  0  0  0
  7  8  1  0  0  0
  8 34  1  0  0  0
 34 35  1  0  0  0
 35 36  1  0  0  0
 36 37  2  0  0  0
 37 38  1  0  0  0
 38 39  2  0  0  0
  3  9  1  0  0  0
  9 10  2  0  0  0
 10 11  1  0  0  0
 11 12  1  0  0  0
 11 13  2  0  0  0
 13 14  1  0  0  0
 14 15  2  0  0  0
 15 16  1  0  0  0
 16 17  2  0  0  0
 16  1  1  0  0  0
  8  3  1  0  0  0
 39 35  1  0  0  0
 15  9  1  0  0  0
 27 18  1  0  0  0
 27 22  1  0  0  0
 30 33  1  0  0  0
M  END
> <minimizedAffinity>
-7.74563

> <CNNscore>
0.1626959294

> <CNNaffinity>
6.3580522537

> <CNN_VS>
1.0344291925

> <CNNaffinity_variance>
0.1661840826

$$$$
