


 44 49  0  0  0  0  0  0  0  0999 V2000
    3.9920   -2.2390   26.2298 N   0  0  0  0  0  0  0  0  0  0  0  0
    3.6549   -3.6833   26.0054 C   0  0  0  0  0  0  0  0  0  0  0  0
    4.6822   -4.6126   25.4298 C   0  0  0  0  0  0  0  0  0  0  0  0
    4.3451   -6.0569   25.2054 C   0  0  0  0  0  0  0  0  0  0  0  0
    5.3724   -6.9860   24.6299 C   0  0  0  0  0  0  0  0  0  0  0  0
    6.7367   -6.4709   24.2787 C   0  0  0  0  0  0  0  0  0  0  0  0
    7.7640   -7.4002   23.7031 Cl  0  0  0  0  0  0  0  0  0  0  0  0
    7.0738   -5.0267   24.5031 C   0  0  0  0  0  0  0  0  0  0  0  0
    6.0465   -4.0975   25.0787 C   0  0  0  0  0  0  0  0  0  0  0  0
    6.3835   -2.6531   25.3031 C   0  0  0  0  0  0  0  0  0  0  0  0
    5.3563   -1.7239   25.8787 C   0  0  0  0  0  0  0  0  0  0  0  0
    3.0642   -2.5893   26.4686 H   0  0  0  0  0  0  0  0  0  0  0  0
    7.7478   -2.1380   24.9520 C   0  0  0  0  0  0  0  0  0  0  0  0
    8.2764   -0.9011   25.6160 O   0  0  0  0  0  0  0  0  0  0  0  0
    8.5836   -2.8597   23.9368 N   0  0  0  0  0  0  0  0  0  0  0  0
    8.2368   -3.6715   23.5010 H   0  0  0  0  0  0  0  0  0  0  0  0
    9.9480   -2.3446   23.5857 C   0  0  0  0  0  0  0  0  0  0  0  0
   10.1686   -1.6323   22.2842 C   0  0  0  0  0  0  0  0  0  0  0  0
   11.5329   -1.1172   21.9331 N   0  0  0  0  0  0  0  0  0  0  0  0
   12.6766   -1.3144   22.8834 C   0  0  0  0  0  0  0  0  0  0  0  0
   12.4560   -2.0268   24.1849 C   0  0  0  0  0  0  0  0  0  0  0  0
   13.5996   -2.2240   25.1352 C   0  0  0  0  0  0  0  0  0  0  0  0
   13.3789   -2.9364   26.4367 C   0  0  0  0  0  0  0  0  0  0  0  0
   12.0146   -3.4515   26.7878 C   0  0  0  0  0  0  0  0  0  0  0  0
   10.8710   -3.2542   25.8375 C   0  0  0  0  0  0  0  0  0  0  0  0
   11.0916   -2.5419   24.5361 C   0  0  0  0  0  0  0  0  0  0  0  0
    2.9647   -1.3098   26.8054 C   0  0  0  0  0  0  0  0  0  0  0  0
    0.6653   -0.5656   25.8519 O   0  0  0  0  0  0  0  0  0  0  0  0
    2.1583   -0.4285   25.8982 C   0  0  0  0  0  0  0  0  0  0  0  0
    2.8450    0.5898   25.0371 N   0  0  0  0  0  0  0  0  0  0  0  0
    3.8249    0.6798   25.0675 H   0  0  0  0  0  0  0  0  0  0  0  0
    2.0386    1.4711   24.1298 C   0  0  0  0  0  0  0  0  0  0  0  0
    2.7126    2.5599   23.3485 C   0  0  0  0  0  0  0  0  0  0  0  0
    1.9063    3.4412   22.4412 C   0  0  0  0  0  0  0  0  0  0  0  0
    0.4261    3.2337   22.3152 C   0  0  0  0  0  0  0  0  0  0  0  0
   -0.2478    2.1449   23.0965 C   0  0  0  0  0  0  0  0  0  0  0  0
    0.5584    1.2636   24.0038 C   0  0  0  0  0  0  0  0  0  0  0  0
   -0.3803    4.1150   21.4079 N   0  0  0  0  0  0  0  0  0  0  0  0
   -1.1766    5.2507   21.9788 C   0  0  0  0  0  0  0  0  0  0  0  0
   -1.9829    6.1319   21.0716 C   0  0  0  0  0  0  0  0  0  0  0  0
   -1.9929    5.8776   19.5933 O   0  0  0  0  0  0  0  0  0  0  0  0
   -1.1966    4.7419   19.0223 C   0  0  0  0  0  0  0  0  0  0  0  0
   -0.3902    3.8606   19.9297 C   0  0  0  0  0  0  0  0  0  0  0  0
    0.4062    2.7249   19.3587 O   0  0  0  0  0  0  0  0  0  0  0  0
 28 29  2  0  0  0
 29 27  1  0  0  0
  1 27  1  0  0  0
  1  2  1  0  0  0
  2  3  1  0  0  0
  3  4  2  0  0  0
  4  5  1  0  0  0
  5  6  2  0  0  0
  6  7  1  0  0  0
  6  8  1  0  0  0
  8  9  2  0  0  0
  9 10  1  0  0  0
 10 13  1  0  0  0
 13 14  2  0  0  0
 13 15  1  0  0  0
 15 17  1  0  0  0
 17 18  2  0  0  0
 18 19  1  0  0  0
 19 20  2  0  0  0
 20 21  1  0  0  0
 21 22  2  0  0  0
 22 23  1  0  0  0
 23 24  2  0  0  0
 24 25  1  0  0  0
 25 26  2  0  0  0
 10 11  1  0  0  0
 29 30  1  0  0  0
 30 32  1  0  0  0
 32 33  2  0  0  0
 33 34  1  0  0  0
 34 35  2  0  0  0
 35 38  1  0  0  0
 38 39  1  0  0  0
 39 40  1  0  0  0
 40 41  1  0  0  0
 41 42  1  0  0  0
 42 43  1  0  0  0
 43 44  2  0  0  0
 35 36  1  0  0  0
 36 37  2  0  0  0
 11  1  1  0  0  0
 37 32  1  0  0  0
  9  3  1  0  0  0
 26 17  1  0  0  0
 43 38  1  0  0  0
 26 21  1  0  0  0
  1 12  1  0  0  0
 15 16  1  0  0  0
 30 31  1  0  0  0
M  CHG 1   1   1
M  END
> <minimizedAffinity>
-7.80852

> <CNNscore>
0.4870965779

> <CNNaffinity>
6.2443199158

> <CNN_VS>
3.0415868759

> <CNNaffinity_variance>
0.2977419496

$$$$



 44 49  0  0  0  0  0  0  0  0999 V2000
    8.8359   -0.9515   21.6164 N   0  0  0  0  0  0  0  0  0  0  0  0
   10.1699   -0.4591   22.0936 C   0  0  0  0  0  0  0  0  0  0  0  0
   10.8459   -1.1293   23.2529 C   0  0  0  0  0  0  0  0  0  0  0  0
   12.1800   -0.6368   23.7301 C   0  0  0  0  0  0  0  0  0  0  0  0
   12.8559   -1.3070   24.8893 C   0  0  0  0  0  0  0  0  0  0  0  0
   12.1978   -2.4696   25.5714 C   0  0  0  0  0  0  0  0  0  0  0  0
   12.8738   -3.1397   26.7308 Cl  0  0  0  0  0  0  0  0  0  0  0  0
   10.8637   -2.9620   25.0943 C   0  0  0  0  0  0  0  0  0  0  0  0
   10.1878   -2.2918   23.9350 C   0  0  0  0  0  0  0  0  0  0  0  0
    8.8537   -2.7842   23.4578 C   0  0  0  0  0  0  0  0  0  0  0  0
    8.1777   -2.1141   22.2985 C   0  0  0  0  0  0  0  0  0  0  0  0
    9.2834   -0.1609   21.1526 H   0  0  0  0  0  0  0  0  0  0  0  0
    8.1955   -3.9468   24.1399 C   0  0  0  0  0  0  0  0  0  0  0  0
    9.0174   -4.9029   24.9527 O   0  0  0  0  0  0  0  0  0  0  0  0
    6.7156   -4.1534   24.0091 N   0  0  0  0  0  0  0  0  0  0  0  0
    6.1762   -3.5260   23.4757 H   0  0  0  0  0  0  0  0  0  0  0  0
    6.0575   -5.3160   24.6912 C   0  0  0  0  0  0  0  0  0  0  0  0
    6.3787   -6.7170   24.2625 C   0  0  0  0  0  0  0  0  0  0  0  0
    5.7205   -7.8796   24.9446 N   0  0  0  0  0  0  0  0  0  0  0  0
    4.7412   -7.6412   26.0554 C   0  0  0  0  0  0  0  0  0  0  0  0
    4.4200   -6.2401   26.4842 C   0  0  0  0  0  0  0  0  0  0  0  0
    3.4406   -6.0016   27.5951 C   0  0  0  0  0  0  0  0  0  0  0  0
    3.1195   -4.6005   28.0238 C   0  0  0  0  0  0  0  0  0  0  0  0
    3.7776   -3.4380   27.3417 C   0  0  0  0  0  0  0  0  0  0  0  0
    4.7569   -3.6764   26.2309 C   0  0  0  0  0  0  0  0  0  0  0  0
    5.0781   -5.0775   25.8021 C   0  0  0  0  0  0  0  0  0  0  0  0
    8.1599   -0.2813   20.4571 C   0  0  0  0  0  0  0  0  0  0  0  0
    6.7102    1.3558   21.8600 O   0  0  0  0  0  0  0  0  0  0  0  0
    6.8742    0.4624   20.6662 C   0  0  0  0  0  0  0  0  0  0  0  0
    5.7525    0.3127   19.6817 N   0  0  0  0  0  0  0  0  0  0  0  0
    5.8601   -0.2736   18.8982 H   0  0  0  0  0  0  0  0  0  0  0  0
    4.4667    1.0565   19.8909 C   0  0  0  0  0  0  0  0  0  0  0  0
    3.7783    1.0045   21.2225 C   0  0  0  0  0  0  0  0  0  0  0  0
    2.4926    1.7481   21.4317 C   0  0  0  0  0  0  0  0  0  0  0  0
    1.8953    2.5439   20.3093 C   0  0  0  0  0  0  0  0  0  0  0  0
    2.5837    2.5959   18.9776 C   0  0  0  0  0  0  0  0  0  0  0  0
    3.8694    1.8522   18.7684 C   0  0  0  0  0  0  0  0  0  0  0  0
    0.6095    3.2876   20.5184 N   0  0  0  0  0  0  0  0  0  0  0  0
    0.6289    4.7706   20.7430 C   0  0  0  0  0  0  0  0  0  0  0  0
   -0.6568    5.5143   20.9521 C   0  0  0  0  0  0  0  0  0  0  0  0
   -1.9620    4.7751   20.9368 O   0  0  0  0  0  0  0  0  0  0  0  0
   -1.9814    3.2922   20.7122 C   0  0  0  0  0  0  0  0  0  0  0  0
   -0.6956    2.5484   20.5030 C   0  0  0  0  0  0  0  0  0  0  0  0
   -0.7150    1.0654   20.2785 O   0  0  0  0  0  0  0  0  0  0  0  0
 28 29  2  0  0  0
 29 27  1  0  0  0
  1 27  1  0  0  0
  1  2  1  0  0  0
  2  3  1  0  0  0
  3  4  2  0  0  0
  4  5  1  0  0  0
  5  6  2  0  0  0
  6  7  1  0  0  0
  6  8  1  0  0  0
  8  9  2  0  0  0
  9 10  1  0  0  0
 10 13  1  0  0  0
 13 14  2  0  0  0
 13 15  1  0  0  0
 15 17  1  0  0  0
 17 18  2  0  0  0
 18 19  1  0  0  0
 19 20  2  0  0  0
 20 21  1  0  0  0
 21 22  2  0  0  0
 22 23  1  0  0  0
 23 24  2  0  0  0
 24 25  1  0  0  0
 25 26  2  0  0  0
 10 11  1  0  0  0
 29 30  1  0  0  0
 30 32  1  0  0  0
 32 33  2  0  0  0
 33 34  1  0  0  0
 34 35  2  0  0  0
 35 38  1  0  0  0
 38 39  1  0  0  0
 39 40  1  0  0  0
 40 41  1  0  0  0
 41 42  1  0  0  0
 42 43  1  0  0  0
 43 44  2  0  0  0
 35 36  1  0  0  0
 36 37  2  0  0  0
 11  1  1  0  0  0
 37 32  1  0  0  0
  9  3  1  0  0  0
 26 17  1  0  0  0
 43 38  1  0  0  0
 26 21  1  0  0  0
  1 12  1  0  0  0
 15 16  1  0  0  0
 30 31  1  0  0  0
M  CHG 1   1   1
M  END
> <minimizedAffinity>
-9.58500

> <CNNscore>
0.4151520133

> <CNNaffinity>
6.4046430588

> <CNN_VS>
2.6589004993

> <CNNaffinity_variance>
0.0418863967

$$$$



 44 49  0  0  0  0  0  0  0  0999 V2000
    8.8828   -1.0055   21.5377 N   0  0  0  0  0  0  0  0  0  0  0  0
   10.3085   -0.6945   21.8850 C   0  0  0  0  0  0  0  0  0  0  0  0
   10.9467   -1.3379   23.0804 C   0  0  0  0  0  0  0  0  0  0  0  0
   12.3723   -1.0269   23.4278 C   0  0  0  0  0  0  0  0  0  0  0  0
   13.0105   -1.6703   24.6231 C   0  0  0  0  0  0  0  0  0  0  0  0
   12.2229   -2.6246   25.4711 C   0  0  0  0  0  0  0  0  0  0  0  0
   12.8611   -3.2679   26.6665 Cl  0  0  0  0  0  0  0  0  0  0  0  0
   10.7972   -2.9355   25.1237 C   0  0  0  0  0  0  0  0  0  0  0  0
   10.1591   -2.2922   23.9284 C   0  0  0  0  0  0  0  0  0  0  0  0
    8.7333   -2.6031   23.5810 C   0  0  0  0  0  0  0  0  0  0  0  0
    8.0952   -1.9598   22.3857 C   0  0  0  0  0  0  0  0  0  0  0  0
    9.4183   -0.3565   20.9610 H   0  0  0  0  0  0  0  0  0  0  0  0
    7.9458   -3.5574   24.4290 C   0  0  0  0  0  0  0  0  0  0  0  0
    8.5438   -4.8733   24.8302 O   0  0  0  0  0  0  0  0  0  0  0  0
    6.5603   -3.1959   24.8757 N   0  0  0  0  0  0  0  0  0  0  0  0
    6.1678   -2.3322   24.6123 H   0  0  0  0  0  0  0  0  0  0  0  0
    5.7727   -4.1502   25.7237 C   0  0  0  0  0  0  0  0  0  0  0  0
    5.2693   -5.4354   25.1365 C   0  0  0  0  0  0  0  0  0  0  0  0
    4.4818   -6.3897   25.9845 N   0  0  0  0  0  0  0  0  0  0  0  0
    4.1975   -6.0587   27.4196 C   0  0  0  0  0  0  0  0  0  0  0  0
    4.7009   -4.7734   28.0069 C   0  0  0  0  0  0  0  0  0  0  0  0
    4.4167   -4.4425   29.4420 C   0  0  0  0  0  0  0  0  0  0  0  0
    4.9200   -3.1573   30.0291 C   0  0  0  0  0  0  0  0  0  0  0  0
    5.7076   -2.2030   29.1812 C   0  0  0  0  0  0  0  0  0  0  0  0
    5.9918   -2.5339   27.7460 C   0  0  0  0  0  0  0  0  0  0  0  0
    5.4885   -3.8192   27.1589 C   0  0  0  0  0  0  0  0  0  0  0  0
    8.2446   -0.3621   20.3423 C   0  0  0  0  0  0  0  0  0  0  0  0
    6.9746    1.6081   21.4628 O   0  0  0  0  0  0  0  0  0  0  0  0
    6.9960    0.4528   20.5063 C   0  0  0  0  0  0  0  0  0  0  0  0
    5.7688    0.1124   19.7139 N   0  0  0  0  0  0  0  0  0  0  0  0
    5.7828   -0.6459   19.0861 H   0  0  0  0  0  0  0  0  0  0  0  0
    4.5201    0.9273   19.8779 C   0  0  0  0  0  0  0  0  0  0  0  0
    3.8376    0.9935   21.2120 C   0  0  0  0  0  0  0  0  0  0  0  0
    2.5890    1.8084   21.3760 C   0  0  0  0  0  0  0  0  0  0  0  0
    2.0229    2.5570   20.2059 C   0  0  0  0  0  0  0  0  0  0  0  0
    2.7054    2.4907   18.8718 C   0  0  0  0  0  0  0  0  0  0  0  0
    3.9540    1.6759   18.7078 C   0  0  0  0  0  0  0  0  0  0  0  0
    0.7742    3.3719   20.3699 N   0  0  0  0  0  0  0  0  0  0  0  0
    0.8660    4.8600   20.5342 C   0  0  0  0  0  0  0  0  0  0  0  0
   -0.3826    5.6749   20.6982 C   0  0  0  0  0  0  0  0  0  0  0  0
   -1.7230    5.0017   20.6979 O   0  0  0  0  0  0  0  0  0  0  0  0
   -1.8148    3.5135   20.5336 C   0  0  0  0  0  0  0  0  0  0  0  0
   -0.5662    2.6986   20.3696 C   0  0  0  0  0  0  0  0  0  0  0  0
   -0.6580    1.2105   20.2053 O   0  0  0  0  0  0  0  0  0  0  0  0
 28 29  2  0  0  0
 29 27  1  0  0  0
  1 27  1  0  0  0
  1  2  1  0  0  0
  2  3  1  0  0  0
  3  4  2  0  0  0
  4  5  1  0  0  0
  5  6  2  0  0  0
  6  7  1  0  0  0
  6  8  1  0  0  0
  8  9  2  0  0  0
  9 10  1  0  0  0
 10 13  1  0  0  0
 13 14  2  0  0  0
 13 15  1  0  0  0
 15 17  1  0  0  0
 17 18  2  0  0  0
 18 19  1  0  0  0
 19 20  2  0  0  0
 20 21  1  0  0  0
 21 22  2  0  0  0
 22 23  1  0  0  0
 23 24  2  0  0  0
 24 25  1  0  0  0
 25 26  2  0  0  0
 10 11  1  0  0  0
 29 30  1  0  0  0
 30 32  1  0  0  0
 32 33  2  0  0  0
 33 34  1  0  0  0
 34 35  2  0  0  0
 35 38  1  0  0  0
 38 39  1  0  0  0
 39 40  1  0  0  0
 40 41  1  0  0  0
 41 42  1  0  0  0
 42 43  1  0  0  0
 43 44  2  0  0  0
 35 36  1  0  0  0
 36 37  2  0  0  0
 11  1  1  0  0  0
 37 32  1  0  0  0
  9  3  1  0  0  0
 26 17  1  0  0  0
 43 38  1  0  0  0
 26 21  1  0  0  0
  1 12  1  0  0  0
 15 16  1  0  0  0
 30 31  1  0  0  0
M  CHG 1   1   1
M  END
> <minimizedAffinity>
-9.04114

> <CNNscore>
0.4017764032

> <CNNaffinity>
6.4775085449

> <CNN_VS>
2.6025099754

> <CNNaffinity_variance>
0.1188900024

$$$$



 44 49  0  0  0  0  0  0  0  0999 V2000
    8.7936   -0.8371   21.7015 N   0  0  0  0  0  0  0  0  0  0  0  0
   10.1183   -0.3358   22.1954 C   0  0  0  0  0  0  0  0  0  0  0  0
   10.8047   -1.0283   23.3353 C   0  0  0  0  0  0  0  0  0  0  0  0
   12.1293   -0.5270   23.8292 C   0  0  0  0  0  0  0  0  0  0  0  0
   12.8157   -1.2195   24.9690 C   0  0  0  0  0  0  0  0  0  0  0  0
   12.1774   -2.4134   25.6150 C   0  0  0  0  0  0  0  0  0  0  0  0
   12.8638   -3.1059   26.7549 Cl  0  0  0  0  0  0  0  0  0  0  0  0
   10.8528   -2.9147   25.1211 C   0  0  0  0  0  0  0  0  0  0  0  0
   10.1664   -2.2222   23.9813 C   0  0  0  0  0  0  0  0  0  0  0  0
    8.8417   -2.7235   23.4873 C   0  0  0  0  0  0  0  0  0  0  0  0
    8.1554   -2.0310   22.3475 C   0  0  0  0  0  0  0  0  0  0  0  0
    9.2277   -0.0253   21.2623 H   0  0  0  0  0  0  0  0  0  0  0  0
    8.2034   -3.9174   24.1333 C   0  0  0  0  0  0  0  0  0  0  0  0
    9.0259   -4.8389   24.9844 O   0  0  0  0  0  0  0  0  0  0  0  0
    6.7427   -4.1898   23.9281 N   0  0  0  0  0  0  0  0  0  0  0  0
    6.2029   -3.5850   23.3695 H   0  0  0  0  0  0  0  0  0  0  0  0
    6.1045   -5.3837   24.5741 C   0  0  0  0  0  0  0  0  0  0  0  0
    6.4996   -6.7670   24.1495 C   0  0  0  0  0  0  0  0  0  0  0  0
    5.8613   -7.9608   24.7954 N   0  0  0  0  0  0  0  0  0  0  0  0
    4.8279   -7.7714   25.8660 C   0  0  0  0  0  0  0  0  0  0  0  0
    4.4327   -6.3881   26.2906 C   0  0  0  0  0  0  0  0  0  0  0  0
    3.3993   -6.1987   27.3612 C   0  0  0  0  0  0  0  0  0  0  0  0
    3.0041   -4.8154   27.7858 C   0  0  0  0  0  0  0  0  0  0  0  0
    3.6424   -3.6215   27.1398 C   0  0  0  0  0  0  0  0  0  0  0  0
    4.6758   -3.8109   26.0693 C   0  0  0  0  0  0  0  0  0  0  0  0
    5.0710   -5.1942   25.6447 C   0  0  0  0  0  0  0  0  0  0  0  0
    8.1072   -0.1446   20.5616 C   0  0  0  0  0  0  0  0  0  0  0  0
    6.7167    1.5951   21.8994 O   0  0  0  0  0  0  0  0  0  0  0  0
    6.8178    0.5855   20.7947 C   0  0  0  0  0  0  0  0  0  0  0  0
    5.6296    0.3060   19.9230 N   0  0  0  0  0  0  0  0  0  0  0  0
    5.6960   -0.3566   19.1979 H   0  0  0  0  0  0  0  0  0  0  0  0
    4.3401    1.0361   20.1560 C   0  0  0  0  0  0  0  0  0  0  0  0
    3.6552    1.7311   19.0167 C   0  0  0  0  0  0  0  0  0  0  0  0
    2.3658    2.4611   19.2497 C   0  0  0  0  0  0  0  0  0  0  0  0
    1.7612    2.4963   20.6220 C   0  0  0  0  0  0  0  0  0  0  0  0
    2.4461    1.8013   21.7613 C   0  0  0  0  0  0  0  0  0  0  0  0
    3.7355    1.0712   21.5283 C   0  0  0  0  0  0  0  0  0  0  0  0
    0.4717    3.2264   20.8550 N   0  0  0  0  0  0  0  0  0  0  0  0
   -0.5711    2.6372   21.7580 C   0  0  0  0  0  0  0  0  0  0  0  0
   -1.8606    3.3672   21.9910 C   0  0  0  0  0  0  0  0  0  0  0  0
   -2.1072    4.6865   21.3211 O   0  0  0  0  0  0  0  0  0  0  0  0
   -1.0644    5.2757   20.4182 C   0  0  0  0  0  0  0  0  0  0  0  0
    0.2251    4.5456   20.1851 C   0  0  0  0  0  0  0  0  0  0  0  0
    1.2680    5.1348   19.2822 O   0  0  0  0  0  0  0  0  0  0  0  0
 28 29  2  0  0  0
 29 27  1  0  0  0
  1 27  1  0  0  0
  1  2  1  0  0  0
  2  3  1  0  0  0
  3  4  2  0  0  0
  4  5  1  0  0  0
  5  6  2  0  0  0
  6  7  1  0  0  0
  6  8  1  0  0  0
  8  9  2  0  0  0
  9 10  1  0  0  0
 10 13  1  0  0  0
 13 14  2  0  0  0
 13 15  1  0  0  0
 15 17  1  0  0  0
 17 18  2  0  0  0
 18 19  1  0  0  0
 19 20  2  0  0  0
 20 21  1  0  0  0
 21 22  2  0  0  0
 22 23  1  0  0  0
 23 24  2  0  0  0
 24 25  1  0  0  0
 25 26  2  0  0  0
 10 11  1  0  0  0
 29 30  1  0  0  0
 30 32  1  0  0  0
 32 33  2  0  0  0
 33 34  1  0  0  0
 34 35  2  0  0  0
 35 38  1  0  0  0
 38 39  1  0  0  0
 39 40  1  0  0  0
 40 41  1  0  0  0
 41 42  1  0  0  0
 42 43  1  0  0  0
 43 44  2  0  0  0
 35 36  1  0  0  0
 36 37  2  0  0  0
 11  1  1  0  0  0
 37 32  1  0  0  0
  9  3  1  0  0  0
 26 17  1  0  0  0
 43 38  1  0  0  0
 26 21  1  0  0  0
  1 12  1  0  0  0
 15 16  1  0  0  0
 30 31  1  0  0  0
M  CHG 1   1   1
M  END
> <minimizedAffinity>
-9.33206

> <CNNscore>
0.3548836410

> <CNNaffinity>
6.3246245384

> <CNN_VS>
2.2445058823

> <CNNaffinity_variance>
0.0382721946

$$$$



 44 49  0  0  0  0  0  0  0  0999 V2000
    8.9614   -1.1248   21.5558 N   0  0  0  0  0  0  0  0  0  0  0  0
   10.4016   -0.8181   21.8415 C   0  0  0  0  0  0  0  0  0  0  0  0
   11.0497   -1.3513   23.0848 C   0  0  0  0  0  0  0  0  0  0  0  0
   12.4899   -1.0446   23.3704 C   0  0  0  0  0  0  0  0  0  0  0  0
   13.1380   -1.5779   24.6136 C   0  0  0  0  0  0  0  0  0  0  0  0
   12.3458   -2.4179   25.5712 C   0  0  0  0  0  0  0  0  0  0  0  0
   12.9939   -2.9511   26.8144 Cl  0  0  0  0  0  0  0  0  0  0  0  0
   10.9056   -2.7246   25.2855 C   0  0  0  0  0  0  0  0  0  0  0  0
   10.2575   -2.1913   24.0423 C   0  0  0  0  0  0  0  0  0  0  0  0
    8.8172   -2.4980   23.7566 C   0  0  0  0  0  0  0  0  0  0  0  0
    8.1692   -1.9648   22.5134 C   0  0  0  0  0  0  0  0  0  0  0  0
    9.5000   -0.5536   20.9047 H   0  0  0  0  0  0  0  0  0  0  0  0
    8.0251   -3.3380   24.7141 C   0  0  0  0  0  0  0  0  0  0  0  0
    8.4528   -4.7454   25.0083 O   0  0  0  0  0  0  0  0  0  0  0  0
    6.8052   -2.7707   25.3775 N   0  0  0  0  0  0  0  0  0  0  0  0
    6.5245   -1.8470   25.1845 H   0  0  0  0  0  0  0  0  0  0  0  0
    6.0131   -3.6107   26.3351 C   0  0  0  0  0  0  0  0  0  0  0  0
    6.1266   -3.3737   27.8118 C   0  0  0  0  0  0  0  0  0  0  0  0
    5.3345   -4.2137   28.7694 N   0  0  0  0  0  0  0  0  0  0  0  0
    4.4287   -5.2907   28.2501 C   0  0  0  0  0  0  0  0  0  0  0  0
    4.3151   -5.5277   26.7733 C   0  0  0  0  0  0  0  0  0  0  0  0
    3.4093   -6.6047   26.2541 C   0  0  0  0  0  0  0  0  0  0  0  0
    3.2957   -6.8417   24.7773 C   0  0  0  0  0  0  0  0  0  0  0  0
    4.0879   -6.0017   23.8198 C   0  0  0  0  0  0  0  0  0  0  0  0
    4.9937   -4.9247   24.3390 C   0  0  0  0  0  0  0  0  0  0  0  0
    5.1073   -4.6877   25.8158 C   0  0  0  0  0  0  0  0  0  0  0  0
    8.3132   -0.5915   20.3126 C   0  0  0  0  0  0  0  0  0  0  0  0
    7.2775    1.6992   20.9682 O   0  0  0  0  0  0  0  0  0  0  0  0
    7.1212    0.3129   20.4170 C   0  0  0  0  0  0  0  0  0  0  0  0
    5.7728   -0.1690   19.9703 N   0  0  0  0  0  0  0  0  0  0  0  0
    5.6702   -1.0788   19.6086 H   0  0  0  0  0  0  0  0  0  0  0  0
    4.5806    0.7355   20.0748 C   0  0  0  0  0  0  0  0  0  0  0  0
    3.9356    0.9752   21.4076 C   0  0  0  0  0  0  0  0  0  0  0  0
    2.7435    1.8796   21.5121 C   0  0  0  0  0  0  0  0  0  0  0  0
    2.1964    2.5442   20.2838 C   0  0  0  0  0  0  0  0  0  0  0  0
    2.8414    2.3045   18.9509 C   0  0  0  0  0  0  0  0  0  0  0  0
    4.0335    1.4001   18.8464 C   0  0  0  0  0  0  0  0  0  0  0  0
    1.0042    3.4486   20.3882 N   0  0  0  0  0  0  0  0  0  0  0  0
    1.1966    4.9281   20.5443 C   0  0  0  0  0  0  0  0  0  0  0  0
    0.0045    5.8325   20.6487 C   0  0  0  0  0  0  0  0  0  0  0  0
   -1.3800    5.2575   20.5972 O   0  0  0  0  0  0  0  0  0  0  0  0
   -1.5723    3.7781   20.4411 C   0  0  0  0  0  0  0  0  0  0  0  0
   -0.3802    2.8737   20.3367 C   0  0  0  0  0  0  0  0  0  0  0  0
   -0.5725    1.3942   20.1807 O   0  0  0  0  0  0  0  0  0  0  0  0
 28 29  2  0  0  0
 29 27  1  0  0  0
  1 27  1  0  0  0
  1  2  1  0  0  0
  2  3  1  0  0  0
  3  4  2  0  0  0
  4  5  1  0  0  0
  5  6  2  0  0  0
  6  7  1  0  0  0
  6  8  1  0  0  0
  8  9  2  0  0  0
  9 10  1  0  0  0
 10 13  1  0  0  0
 13 14  2  0  0  0
 13 15  1  0  0  0
 15 17  1  0  0  0
 17 18  2  0  0  0
 18 19  1  0  0  0
 19 20  2  0  0  0
 20 21  1  0  0  0
 21 22  2  0  0  0
 22 23  1  0  0  0
 23 24  2  0  0  0
 24 25  1  0  0  0
 25 26  2  0  0  0
 10 11  1  0  0  0
 29 30  1  0  0  0
 30 32  1  0  0  0
 32 33  2  0  0  0
 33 34  1  0  0  0
 34 35  2  0  0  0
 35 38  1  0  0  0
 38 39  1  0  0  0
 39 40  1  0  0  0
 40 41  1  0  0  0
 41 42  1  0  0  0
 42 43  1  0  0  0
 43 44  2  0  0  0
 35 36  1  0  0  0
 36 37  2  0  0  0
 11  1  1  0  0  0
 37 32  1  0  0  0
  9  3  1  0  0  0
 26 17  1  0  0  0
 43 38  1  0  0  0
 26 21  1  0  0  0
  1 12  1  0  0  0
 15 16  1  0  0  0
 30 31  1  0  0  0
M  CHG 1   1   1
M  END
> <minimizedAffinity>
-8.92058

> <CNNscore>
0.3163610697

> <CNNaffinity>
6.2296695709

> <CNN_VS>
1.9708249569

> <CNNaffinity_variance>
0.0540149696

$$$$



 44 49  0  0  0  0  0  0  0  0999 V2000
    8.5722   -1.1423   22.4493 N   0  0  0  0  0  0  0  0  0  0  0  0
    9.9421   -1.4651   22.9679 C   0  0  0  0  0  0  0  0  0  0  0  0
   10.0982   -2.2396   24.2430 C   0  0  0  0  0  0  0  0  0  0  0  0
   11.4682   -2.5623   24.7616 C   0  0  0  0  0  0  0  0  0  0  0  0
   11.6242   -3.3367   26.0367 C   0  0  0  0  0  0  0  0  0  0  0  0
   10.4102   -3.7883   26.7932 C   0  0  0  0  0  0  0  0  0  0  0  0
   10.5663   -4.5628   28.0684 Cl  0  0  0  0  0  0  0  0  0  0  0  0
    9.0403   -3.4656   26.2747 C   0  0  0  0  0  0  0  0  0  0  0  0
    8.8843   -2.6912   24.9996 C   0  0  0  0  0  0  0  0  0  0  0  0
    7.5142   -2.3684   24.4810 C   0  0  0  0  0  0  0  0  0  0  0  0
    7.3582   -1.5940   23.2059 C   0  0  0  0  0  0  0  0  0  0  0  0
    9.3977   -0.8352   21.9349 H   0  0  0  0  0  0  0  0  0  0  0  0
    6.3003   -2.8200   25.2375 C   0  0  0  0  0  0  0  0  0  0  0  0
    5.1864   -1.8540   25.5138 O   0  0  0  0  0  0  0  0  0  0  0  0
    6.2002   -4.2374   25.7178 N   0  0  0  0  0  0  0  0  0  0  0  0
    6.9313   -4.8714   25.5365 H   0  0  0  0  0  0  0  0  0  0  0  0
    4.9862   -4.6891   26.4743 C   0  0  0  0  0  0  0  0  0  0  0  0
    3.9931   -5.6041   25.8215 C   0  0  0  0  0  0  0  0  0  0  0  0
    2.7791   -6.0557   26.5780 N   0  0  0  0  0  0  0  0  0  0  0  0
    2.5583   -5.5923   27.9874 C   0  0  0  0  0  0  0  0  0  0  0  0
    3.5515   -4.6772   28.6403 C   0  0  0  0  0  0  0  0  0  0  0  0
    3.3308   -4.2138   30.0497 C   0  0  0  0  0  0  0  0  0  0  0  0
    4.3239   -3.2988   30.7026 C   0  0  0  0  0  0  0  0  0  0  0  0
    5.5379   -2.8471   29.9461 C   0  0  0  0  0  0  0  0  0  0  0  0
    5.7587   -3.3106   28.5367 C   0  0  0  0  0  0  0  0  0  0  0  0
    4.7655   -4.2256   27.8838 C   0  0  0  0  0  0  0  0  0  0  0  0
    8.4161   -0.3679   21.1742 C   0  0  0  0  0  0  0  0  0  0  0  0
    7.3857    2.0030   20.9152 O   0  0  0  0  0  0  0  0  0  0  0  0
    7.2190    0.5134   20.9737 C   0  0  0  0  0  0  0  0  0  0  0  0
    5.8553   -0.0948   20.8317 N   0  0  0  0  0  0  0  0  0  0  0  0
    5.7459   -1.0724   20.8701 H   0  0  0  0  0  0  0  0  0  0  0  0
    4.6581    0.7866   20.6312 C   0  0  0  0  0  0  0  0  0  0  0  0
    4.2695    1.2206   19.2490 C   0  0  0  0  0  0  0  0  0  0  0  0
    3.0724    2.1019   19.0484 C   0  0  0  0  0  0  0  0  0  0  0  0
    2.2640    2.5492   20.2301 C   0  0  0  0  0  0  0  0  0  0  0  0
    2.6527    2.1151   21.6123 C   0  0  0  0  0  0  0  0  0  0  0  0
    3.8497    1.2338   21.8129 C   0  0  0  0  0  0  0  0  0  0  0  0
    1.0668    3.4305   20.0296 N   0  0  0  0  0  0  0  0  0  0  0  0
    1.2449    4.9102   19.8597 C   0  0  0  0  0  0  0  0  0  0  0  0
    0.0479    5.7915   19.6592 C   0  0  0  0  0  0  0  0  0  0  0  0
   -1.3274    5.1932   19.6286 O   0  0  0  0  0  0  0  0  0  0  0  0
   -1.5054    3.7136   19.7985 C   0  0  0  0  0  0  0  0  0  0  0  0
   -0.3083    2.8322   19.9990 C   0  0  0  0  0  0  0  0  0  0  0  0
   -0.4864    1.3525   20.1689 O   0  0  0  0  0  0  0  0  0  0  0  0
 28 29  2  0  0  0
 29 27  1  0  0  0
  1 27  1  0  0  0
  1  2  1  0  0  0
  2  3  1  0  0  0
  3  4  2  0  0  0
  4  5  1  0  0  0
  5  6  2  0  0  0
  6  7  1  0  0  0
  6  8  1  0  0  0
  8  9  2  0  0  0
  9 10  1  0  0  0
 10 13  1  0  0  0
 13 14  2  0  0  0
 13 15  1  0  0  0
 15 17  1  0  0  0
 17 18  2  0  0  0
 18 19  1  0  0  0
 19 20  2  0  0  0
 20 21  1  0  0  0
 21 22  2  0  0  0
 22 23  1  0  0  0
 23 24  2  0  0  0
 24 25  1  0  0  0
 25 26  2  0  0  0
 10 11  1  0  0  0
 29 30  1  0  0  0
 30 32  1  0  0  0
 32 33  2  0  0  0
 33 34  1  0  0  0
 34 35  2  0  0  0
 35 38  1  0  0  0
 38 39  1  0  0  0
 39 40  1  0  0  0
 40 41  1  0  0  0
 41 42  1  0  0  0
 42 43  1  0  0  0
 43 44  2  0  0  0
 35 36  1  0  0  0
 36 37  2  0  0  0
 11  1  1  0  0  0
 37 32  1  0  0  0
  9  3  1  0  0  0
 26 17  1  0  0  0
 43 38  1  0  0  0
 26 21  1  0  0  0
  1 12  1  0  0  0
 15 16  1  0  0  0
 30 31  1  0  0  0
M  CHG 1   1   1
M  END
> <minimizedAffinity>
-8.56901

> <CNNscore>
0.3139750659

> <CNNaffinity>
6.1293244362

> <CNN_VS>
1.9244550467

> <CNNaffinity_variance>
0.0628387854

$$$$



 44 49  0  0  0  0  0  0  0  0999 V2000
    8.7228   -1.0560   21.4587 N   0  0  0  0  0  0  0  0  0  0  0  0
   10.0257   -0.5040   21.9564 C   0  0  0  0  0  0  0  0  0  0  0  0
   10.6878   -1.1116   23.1575 C   0  0  0  0  0  0  0  0  0  0  0  0
   11.9907   -0.5597   23.6552 C   0  0  0  0  0  0  0  0  0  0  0  0
   12.6527   -1.1673   24.8562 C   0  0  0  0  0  0  0  0  0  0  0  0
   12.0118   -2.3268   25.5595 C   0  0  0  0  0  0  0  0  0  0  0  0
   12.6739   -2.9344   26.7606 Cl  0  0  0  0  0  0  0  0  0  0  0  0
   10.7089   -2.8788   25.0618 C   0  0  0  0  0  0  0  0  0  0  0  0
   10.0469   -2.2712   23.8608 C   0  0  0  0  0  0  0  0  0  0  0  0
    8.7439   -2.8231   23.3631 C   0  0  0  0  0  0  0  0  0  0  0  0
    8.0819   -2.2155   22.1621 C   0  0  0  0  0  0  0  0  0  0  0  0
    9.1586   -0.2675   20.9804 H   0  0  0  0  0  0  0  0  0  0  0  0
    8.1030   -3.9827   24.0664 C   0  0  0  0  0  0  0  0  0  0  0  0
    8.9415   -4.9210   24.8830 O   0  0  0  0  0  0  0  0  0  0  0  0
    6.6238   -4.2040   23.9532 N   0  0  0  0  0  0  0  0  0  0  0  0
    6.0735   -3.5882   23.4173 H   0  0  0  0  0  0  0  0  0  0  0  0
    5.9829   -5.3636   24.6566 C   0  0  0  0  0  0  0  0  0  0  0  0
    6.2523   -6.7642   24.1923 C   0  0  0  0  0  0  0  0  0  0  0  0
    5.6114   -7.9238   24.8957 N   0  0  0  0  0  0  0  0  0  0  0  0
    4.7012   -7.6827   26.0633 C   0  0  0  0  0  0  0  0  0  0  0  0
    4.4318   -6.2820   26.5276 C   0  0  0  0  0  0  0  0  0  0  0  0
    3.5215   -6.0409   27.6952 C   0  0  0  0  0  0  0  0  0  0  0  0
    3.2522   -4.6402   28.1594 C   0  0  0  0  0  0  0  0  0  0  0  0
    3.8931   -3.4806   27.4561 C   0  0  0  0  0  0  0  0  0  0  0  0
    4.8033   -3.7217   26.2885 C   0  0  0  0  0  0  0  0  0  0  0  0
    5.0726   -5.1224   25.8242 C   0  0  0  0  0  0  0  0  0  0  0  0
    8.0607   -0.4484   20.2576 C   0  0  0  0  0  0  0  0  0  0  0  0
    7.5035    1.9276   21.1487 O   0  0  0  0  0  0  0  0  0  0  0  0
    7.0868    0.6796   20.4284 C   0  0  0  0  0  0  0  0  0  0  0  0
    5.6963    0.5596   19.8789 N   0  0  0  0  0  0  0  0  0  0  0  0
    5.4229   -0.2595   19.4061 H   0  0  0  0  0  0  0  0  0  0  0  0
    4.7224    1.6876   20.0497 C   0  0  0  0  0  0  0  0  0  0  0  0
    3.5706    1.8343   19.1000 C   0  0  0  0  0  0  0  0  0  0  0  0
    2.5967    2.9623   19.2707 C   0  0  0  0  0  0  0  0  0  0  0  0
    2.7746    3.9435   20.3911 C   0  0  0  0  0  0  0  0  0  0  0  0
    3.9264    3.7969   21.3408 C   0  0  0  0  0  0  0  0  0  0  0  0
    4.9003    2.6689   21.1701 C   0  0  0  0  0  0  0  0  0  0  0  0
    1.8007    5.0716   20.5619 N   0  0  0  0  0  0  0  0  0  0  0  0
    2.1247    6.2090   21.4845 C   0  0  0  0  0  0  0  0  0  0  0  0
    1.1509    7.3370   21.6553 C   0  0  0  0  0  0  0  0  0  0  0  0
   -0.1471    7.3276   20.9034 O   0  0  0  0  0  0  0  0  0  0  0  0
   -0.4712    6.1902   19.9808 C   0  0  0  0  0  0  0  0  0  0  0  0
    0.5028    5.0621   19.8101 C   0  0  0  0  0  0  0  0  0  0  0  0
    0.1787    3.9247   18.8874 O   0  0  0  0  0  0  0  0  0  0  0  0
 28 29  2  0  0  0
 29 27  1  0  0  0
  1 27  1  0  0  0
  1  2  1  0  0  0
  2  3  1  0  0  0
  3  4  2  0  0  0
  4  5  1  0  0  0
  5  6  2  0  0  0
  6  7  1  0  0  0
  6  8  1  0  0  0
  8  9  2  0  0  0
  9 10  1  0  0  0
 10 13  1  0  0  0
 13 14  2  0  0  0
 13 15  1  0  0  0
 15 17  1  0  0  0
 17 18  2  0  0  0
 18 19  1  0  0  0
 19 20  2  0  0  0
 20 21  1  0  0  0
 21 22  2  0  0  0
 22 23  1  0  0  0
 23 24  2  0  0  0
 24 25  1  0  0  0
 25 26  2  0  0  0
 10 11  1  0  0  0
 29 30  1  0  0  0
 30 32  1  0  0  0
 32 33  2  0  0  0
 33 34  1  0  0  0
 34 35  2  0  0  0
 35 38  1  0  0  0
 38 39  1  0  0  0
 39 40  1  0  0  0
 40 41  1  0  0  0
 41 42  1  0  0  0
 42 43  1  0  0  0
 43 44  2  0  0  0
 35 36  1  0  0  0
 36 37  2  0  0  0
 11  1  1  0  0  0
 37 32  1  0  0  0
  9  3  1  0  0  0
 26 17  1  0  0  0
 43 38  1  0  0  0
 26 21  1  0  0  0
  1 12  1  0  0  0
 15 16  1  0  0  0
 30 31  1  0  0  0
M  CHG 1   1   1
M  END
> <minimizedAffinity>
-9.50020

> <CNNscore>
0.2953554392

> <CNNaffinity>
6.2523775101

> <CNN_VS>
1.8466737270

> <CNNaffinity_variance>
0.0394689962

$$$$



 44 49  0  0  0  0  0  0  0  0999 V2000
    8.7634   -1.1998   21.9568 N   0  0  0  0  0  0  0  0  0  0  0  0
    9.9609   -1.0487   22.8474 C   0  0  0  0  0  0  0  0  0  0  0  0
   10.1751   -2.0031   23.9846 C   0  0  0  0  0  0  0  0  0  0  0  0
   11.3726   -1.8521   24.8752 C   0  0  0  0  0  0  0  0  0  0  0  0
   11.5866   -2.8064   26.0124 C   0  0  0  0  0  0  0  0  0  0  0  0
   10.6032   -3.9119   26.2591 C   0  0  0  0  0  0  0  0  0  0  0  0
   10.8173   -4.8663   27.3964 Cl  0  0  0  0  0  0  0  0  0  0  0  0
    9.4056   -4.0629   25.3685 C   0  0  0  0  0  0  0  0  0  0  0  0
    9.1916   -3.1085   24.2313 C   0  0  0  0  0  0  0  0  0  0  0  0
    7.9940   -3.2596   23.3407 C   0  0  0  0  0  0  0  0  0  0  0  0
    7.7800   -2.3052   22.2035 C   0  0  0  0  0  0  0  0  0  0  0  0
    9.4322   -0.4481   21.7891 H   0  0  0  0  0  0  0  0  0  0  0  0
    7.0106   -4.3650   23.5874 C   0  0  0  0  0  0  0  0  0  0  0  0
    6.4935   -5.1790   22.4384 O   0  0  0  0  0  0  0  0  0  0  0  0
    6.5442   -4.6564   24.9829 N   0  0  0  0  0  0  0  0  0  0  0  0
    6.8836   -4.1221   25.7370 H   0  0  0  0  0  0  0  0  0  0  0  0
    5.5608   -5.7618   25.2296 C   0  0  0  0  0  0  0  0  0  0  0  0
    5.9179   -7.1756   24.8782 C   0  0  0  0  0  0  0  0  0  0  0  0
    4.9344   -8.2811   25.1249 N   0  0  0  0  0  0  0  0  0  0  0  0
    3.5939   -7.9727   25.7229 C   0  0  0  0  0  0  0  0  0  0  0  0
    3.2367   -6.5588   26.0743 C   0  0  0  0  0  0  0  0  0  0  0  0
    1.8961   -6.2504   26.6724 C   0  0  0  0  0  0  0  0  0  0  0  0
    1.5390   -4.8365   27.0238 C   0  0  0  0  0  0  0  0  0  0  0  0
    2.5225   -3.7311   26.7771 C   0  0  0  0  0  0  0  0  0  0  0  0
    3.8630   -4.0395   26.1790 C   0  0  0  0  0  0  0  0  0  0  0  0
    4.2201   -5.4534   25.8277 C   0  0  0  0  0  0  0  0  0  0  0  0
    8.5493   -0.2453   20.8195 C   0  0  0  0  0  0  0  0  0  0  0  0
    7.3379    2.0296   21.1466 O   0  0  0  0  0  0  0  0  0  0  0  0
    7.2990    0.5810   20.7592 C   0  0  0  0  0  0  0  0  0  0  0  0
    6.0097   -0.0413   20.3114 N   0  0  0  0  0  0  0  0  0  0  0  0
    5.9842   -0.9920   20.0571 H   0  0  0  0  0  0  0  0  0  0  0  0
    4.7592    0.7851   20.2510 C   0  0  0  0  0  0  0  0  0  0  0  0
    3.9565    1.0226   21.4956 C   0  0  0  0  0  0  0  0  0  0  0  0
    2.7060    1.8489   21.4353 C   0  0  0  0  0  0  0  0  0  0  0  0
    2.2584    2.4377   20.1303 C   0  0  0  0  0  0  0  0  0  0  0  0
    3.0612    2.2001   18.8857 C   0  0  0  0  0  0  0  0  0  0  0  0
    4.3116    1.3738   18.9460 C   0  0  0  0  0  0  0  0  0  0  0  0
    1.0080    3.2640   20.0699 N   0  0  0  0  0  0  0  0  0  0  0  0
    1.0990    4.7495   19.8830 C   0  0  0  0  0  0  0  0  0  0  0  0
   -0.1514    5.5758   19.8226 C   0  0  0  0  0  0  0  0  0  0  0  0
   -1.4929    4.9167   19.9491 O   0  0  0  0  0  0  0  0  0  0  0  0
   -1.5839    3.4312   20.1361 C   0  0  0  0  0  0  0  0  0  0  0  0
   -0.3334    2.6048   20.1965 C   0  0  0  0  0  0  0  0  0  0  0  0
   -0.4245    1.1193   20.3834 O   0  0  0  0  0  0  0  0  0  0  0  0
 28 29  2  0  0  0
 29 27  1  0  0  0
  1 27  1  0  0  0
  1  2  1  0  0  0
  2  3  1  0  0  0
  3  4  2  0  0  0
  4  5  1  0  0  0
  5  6  2  0  0  0
  6  7  1  0  0  0
  6  8  1  0  0  0
  8  9  2  0  0  0
  9 10  1  0  0  0
 10 13  1  0  0  0
 13 14  2  0  0  0
 13 15  1  0  0  0
 15 17  1  0  0  0
 17 18  2  0  0  0
 18 19  1  0  0  0
 19 20  2  0  0  0
 20 21  1  0  0  0
 21 22  2  0  0  0
 22 23  1  0  0  0
 23 24  2  0  0  0
 24 25  1  0  0  0
 25 26  2  0  0  0
 10 11  1  0  0  0
 29 30  1  0  0  0
 30 32  1  0  0  0
 32 33  2  0  0  0
 33 34  1  0  0  0
 34 35  2  0  0  0
 35 38  1  0  0  0
 38 39  1  0  0  0
 39 40  1  0  0  0
 40 41  1  0  0  0
 41 42  1  0  0  0
 42 43  1  0  0  0
 43 44  2  0  0  0
 35 36  1  0  0  0
 36 37  2  0  0  0
 11  1  1  0  0  0
 37 32  1  0  0  0
  9  3  1  0  0  0
 26 17  1  0  0  0
 43 38  1  0  0  0
 26 21  1  0  0  0
  1 12  1  0  0  0
 15 16  1  0  0  0
 30 31  1  0  0  0
M  CHG 1   1   1
M  END
> <minimizedAffinity>
-9.03145

> <CNNscore>
0.2816533744

> <CNNaffinity>
6.1528973579

> <CNN_VS>
1.7329843044

> <CNNaffinity_variance>
0.1256191283

$$$$



 44 49  0  0  0  0  0  0  0  0999 V2000
    9.0391   -1.0315   21.7331 N   0  0  0  0  0  0  0  0  0  0  0  0
   10.5342   -1.0099   21.8515 C   0  0  0  0  0  0  0  0  0  0  0  0
   11.1937   -1.4851   23.1122 C   0  0  0  0  0  0  0  0  0  0  0  0
   12.6888   -1.4635   23.2305 C   0  0  0  0  0  0  0  0  0  0  0  0
   13.3483   -1.9387   24.4912 C   0  0  0  0  0  0  0  0  0  0  0  0
   12.5126   -2.4355   25.6334 C   0  0  0  0  0  0  0  0  0  0  0  0
   13.1721   -2.9108   26.8941 Cl  0  0  0  0  0  0  0  0  0  0  0  0
   11.0174   -2.4572   25.5150 C   0  0  0  0  0  0  0  0  0  0  0  0
   10.3580   -1.9820   24.2544 C   0  0  0  0  0  0  0  0  0  0  0  0
    8.8628   -2.0036   24.1360 C   0  0  0  0  0  0  0  0  0  0  0  0
    8.2034   -1.5284   22.8753 C   0  0  0  0  0  0  0  0  0  0  0  0
    9.6073   -0.6937   20.9563 H   0  0  0  0  0  0  0  0  0  0  0  0
    8.0271   -2.5005   25.2782 C   0  0  0  0  0  0  0  0  0  0  0  0
    8.6510   -3.3373   26.3555 O   0  0  0  0  0  0  0  0  0  0  0  0
    6.5676   -2.1606   25.3432 N   0  0  0  0  0  0  0  0  0  0  0  0
    6.1582   -1.6113   24.6361 H   0  0  0  0  0  0  0  0  0  0  0  0
    5.7319   -2.6574   26.4854 C   0  0  0  0  0  0  0  0  0  0  0  0
    5.2434   -4.0756   26.4960 C   0  0  0  0  0  0  0  0  0  0  0  0
    4.4077   -4.5724   27.6383 N   0  0  0  0  0  0  0  0  0  0  0  0
    4.0605   -3.6512   28.7699 C   0  0  0  0  0  0  0  0  0  0  0  0
    4.5490   -2.2329   28.7594 C   0  0  0  0  0  0  0  0  0  0  0  0
    4.2019   -1.3117   29.8910 C   0  0  0  0  0  0  0  0  0  0  0  0
    4.6904    0.1065   29.8804 C   0  0  0  0  0  0  0  0  0  0  0  0
    5.5261    0.6034   28.7382 C   0  0  0  0  0  0  0  0  0  0  0  0
    5.8733   -0.3179   27.6065 C   0  0  0  0  0  0  0  0  0  0  0  0
    5.3847   -1.7361   27.6171 C   0  0  0  0  0  0  0  0  0  0  0  0
    8.3795   -0.5563   20.4724 C   0  0  0  0  0  0  0  0  0  0  0  0
    7.3245    1.7509   21.0326 O   0  0  0  0  0  0  0  0  0  0  0  0
    7.1787    0.3395   20.5459 C   0  0  0  0  0  0  0  0  0  0  0  0
    5.8321   -0.1759   20.1327 N   0  0  0  0  0  0  0  0  0  0  0  0
    5.7364   -1.1022   19.8132 H   0  0  0  0  0  0  0  0  0  0  0  0
    4.6312    0.7199   20.2062 C   0  0  0  0  0  0  0  0  0  0  0  0
    4.1250    1.3987   18.9680 C   0  0  0  0  0  0  0  0  0  0  0  0
    2.9241    2.2945   19.0414 C   0  0  0  0  0  0  0  0  0  0  0  0
    2.2295    2.5115   20.3530 C   0  0  0  0  0  0  0  0  0  0  0  0
    2.7357    1.8328   21.5912 C   0  0  0  0  0  0  0  0  0  0  0  0
    3.9365    0.9369   21.5177 C   0  0  0  0  0  0  0  0  0  0  0  0
    1.0286    3.4074   20.4265 N   0  0  0  0  0  0  0  0  0  0  0  0
    1.2060    4.8868   20.5995 C   0  0  0  0  0  0  0  0  0  0  0  0
    0.0051    5.7826   20.6730 C   0  0  0  0  0  0  0  0  0  0  0  0
   -1.3732    5.1991   20.5735 O   0  0  0  0  0  0  0  0  0  0  0  0
   -1.5506    3.7197   20.4005 C   0  0  0  0  0  0  0  0  0  0  0  0
   -0.3497    2.8238   20.3270 C   0  0  0  0  0  0  0  0  0  0  0  0
   -0.5270    1.3445   20.1541 O   0  0  0  0  0  0  0  0  0  0  0  0
 28 29  2  0  0  0
 29 27  1  0  0  0
  1 27  1  0  0  0
  1  2  1  0  0  0
  2  3  1  0  0  0
  3  4  2  0  0  0
  4  5  1  0  0  0
  5  6  2  0  0  0
  6  7  1  0  0  0
  6  8  1  0  0  0
  8  9  2  0  0  0
  9 10  1  0  0  0
 10 13  1  0  0  0
 13 14  2  0  0  0
 13 15  1  0  0  0
 15 17  1  0  0  0
 17 18  2  0  0  0
 18 19  1  0  0  0
 19 20  2  0  0  0
 20 21  1  0  0  0
 21 22  2  0  0  0
 22 23  1  0  0  0
 23 24  2  0  0  0
 24 25  1  0  0  0
 25 26  2  0  0  0
 10 11  1  0  0  0
 29 30  1  0  0  0
 30 32  1  0  0  0
 32 33  2  0  0  0
 33 34  1  0  0  0
 34 35  2  0  0  0
 35 38  1  0  0  0
 38 39  1  0  0  0
 39 40  1  0  0  0
 40 41  1  0  0  0
 41 42  1  0  0  0
 42 43  1  0  0  0
 43 44  2  0  0  0
 35 36  1  0  0  0
 36 37  2  0  0  0
 11  1  1  0  0  0
 37 32  1  0  0  0
  9  3  1  0  0  0
 26 17  1  0  0  0
 43 38  1  0  0  0
 26 21  1  0  0  0
  1 12  1  0  0  0
 15 16  1  0  0  0
 30 31  1  0  0  0
M  CHG 1   1   1
M  END
> <minimizedAffinity>
-8.26244

> <CNNscore>
0.2813641727

> <CNNaffinity>
6.2415122986

> <CNN_VS>
1.7561379671

> <CNNaffinity_variance>
0.0519526824

$$$$
