


 42 48  0  0  0  0  0  0  0  0999 V2000
   -7.3161   -4.0515  -24.5293 O   0  0  0  0  0  0  0  0  0  0  0  0
   -7.8094   -2.6537  -24.2993 C   0  0  0  0  0  0  0  0  0  0  0  0
   -6.8326   -1.5501  -24.0199 C   0  0  0  0  0  0  0  0  0  0  0  0
   -5.3626   -1.8443  -23.9704 C   0  0  0  0  0  0  0  0  0  0  0  0
   -4.3859   -0.7407  -23.6909 C   0  0  0  0  0  0  0  0  0  0  0  0
   -4.8792    0.6571  -23.4610 C   0  0  0  0  0  0  0  0  0  0  0  0
   -3.6571    1.4916  -23.2151 Cl  0  0  0  0  0  0  0  0  0  0  0  0
   -6.3492    0.9513  -23.5105 C   0  0  0  0  0  0  0  0  0  0  0  0
   -7.3259   -0.1523  -23.7900 C   0  0  0  0  0  0  0  0  0  0  0  0
   -8.7960    0.1419  -23.8395 C   0  0  0  0  0  0  0  0  0  0  0  0
   -9.7727   -0.9617  -24.1189 C   0  0  0  0  0  0  0  0  0  0  0  0
   -9.2794   -2.3595  -24.3489 N   0  0  0  0  0  0  0  0  0  0  0  0
  -10.2288    0.5855  -23.8580 C   0  0  0  0  0  0  0  0  0  0  0  0
  -11.4198   -0.2909  -24.1097 O   0  0  0  0  0  0  0  0  0  0  0  0
  -10.2614    2.0592  -23.5807 N   0  0  0  0  0  0  0  0  0  0  0  0
   -8.8488    2.5265  -23.3907 C   0  0  0  0  0  0  0  0  0  0  0  0
   -7.9431    1.3416  -23.5507 C   0  0  0  0  0  0  0  0  0  0  0  0
  -11.4909    2.9154  -23.5063 C   0  0  0  0  0  0  0  0  0  0  0  0
  -12.4530    2.7488  -22.3678 C   0  0  0  0  0  0  0  0  0  0  0  0
  -13.6824    3.6049  -22.2934 N   0  0  0  0  0  0  0  0  0  0  0  0
  -13.9496    4.6276  -23.3576 C   0  0  0  0  0  0  0  0  0  0  0  0
  -12.9874    4.7942  -24.4962 C   0  0  0  0  0  0  0  0  0  0  0  0
  -13.2547    5.8170  -25.5605 C   0  0  0  0  0  0  0  0  0  0  0  0
  -12.2924    5.9835  -26.6991 C   0  0  0  0  0  0  0  0  0  0  0  0
  -11.0630    5.1274  -26.7733 C   0  0  0  0  0  0  0  0  0  0  0  0
  -10.7958    4.1047  -25.7091 C   0  0  0  0  0  0  0  0  0  0  0  0
  -11.7580    3.9381  -24.5706 C   0  0  0  0  0  0  0  0  0  0  0  0
  -10.2561   -3.4631  -24.6283 C   0  0  0  0  0  0  0  0  0  0  0  0
  -10.1161   -4.2919  -25.8706 C   0  0  0  0  0  0  0  0  0  0  0  0
   -9.5759   -3.8211  -27.1883 N   0  0  0  0  0  0  0  0  0  0  0  0
   -9.6175   -4.9753  -28.1455 N   0  0  0  0  0  0  0  0  0  0  0  0
  -10.1835   -6.1595  -27.4192 C   0  0  0  0  0  0  0  0  0  0  0  0
  -10.4916   -5.7371  -26.0133 O   0  0  0  0  0  0  0  0  0  0  0  0
   -6.4472    1.3541  -23.4411 C   0  0  0  0  0  0  0  0  0  0  0  0
   -5.7911    1.8463  -22.1852 N   0  0  0  0  0  0  0  0  0  0  0  0
   -5.3168    2.7090  -22.1832 H   0  0  0  0  0  0  0  0  0  0  0  0
   -5.8577    1.0242  -20.9324 C   0  0  0  0  0  0  0  0  0  0  0  0
   -4.7449    1.0947  -19.9290 C   0  0  0  0  0  0  0  0  0  0  0  0
   -4.8116    0.2725  -18.6762 C   0  0  0  0  0  0  0  0  0  0  0  0
   -5.9910   -0.6200  -18.4267 N   0  0  0  0  0  0  0  0  0  0  0  0
   -7.1038   -0.6905  -19.4300 C   0  0  0  0  0  0  0  0  0  0  0  0
   -7.0372    0.1316  -20.6828 N   0  0  0  0  0  0  0  0  0  0  0  0
  1  2  2  0  0  0
  2  3  1  0  0  0
  3  4  2  0  0  0
  4  5  1  0  0  0
  5  6  2  0  0  0
  6  7  1  0  0  0
  6  8  1  0  0  0
  8  9  2  0  0  0
  9 10  1  0  0  0
 10 11  1  0  0  0
 11 12  1  0  0  0
 12 28  1  0  0  0
 28 29  1  0  0  0
 29 30  2  0  0  0
 30 31  1  0  0  0
 31 32  2  0  0  0
 32 33  1  0  0  0
 10 13  1  0  0  0
 13 14  2  0  0  0
 13 15  1  0  0  0
 15 18  1  0  0  0
 18 19  2  0  0  0
 19 20  1  0  0  0
 20 21  2  0  0  0
 21 22  1  0  0  0
 22 23  2  0  0  0
 23 24  1  0  0  0
 24 25  2  0  0  0
 25 26  1  0  0  0
 26 27  2  0  0  0
 15 16  1  0  0  0
 16 17  1  0  0  0
 17 34  1  0  0  0
 34 35  1  0  0  0
 35 37  1  0  0  0
 37 38  2  0  0  0
 38 39  1  0  0  0
 39 40  2  0  0  0
 40 41  1  0  0  0
 41 42  2  0  0  0
 12  2  1  0  0  0
 33 29  1  0  0  0
 27 18  1  0  0  0
 42 37  1  0  0  0
  9  3  1  0  0  0
 17 10  1  0  0  0
 27 22  1  0  0  0
 35 36  1  0  0  0
M  END
> <minimizedAffinity>
-8.60504

> <CNNscore>
0.5363870263

> <CNNaffinity>
6.9671525955

> <CNN_VS>
3.7370903492

> <CNNaffinity_variance>
0.0371819325

$$$$



 42 48  0  0  0  0  0  0  0  0999 V2000
   -5.3451   -3.6671  -20.6147 O   0  0  0  0  0  0  0  0  0  0  0  0
   -6.1254   -2.6303  -21.3672 C   0  0  0  0  0  0  0  0  0  0  0  0
   -7.0458   -3.0436  -22.4773 C   0  0  0  0  0  0  0  0  0  0  0  0
   -7.1857   -4.4936  -22.8349 C   0  0  0  0  0  0  0  0  0  0  0  0
   -8.1060   -4.9069  -23.9449 C   0  0  0  0  0  0  0  0  0  0  0  0
   -8.8864   -3.8701  -24.6974 C   0  0  0  0  0  0  0  0  0  0  0  0
   -9.6899   -4.6185  -25.7194 Cl  0  0  0  0  0  0  0  0  0  0  0  0
   -8.7464   -2.4201  -24.3399 C   0  0  0  0  0  0  0  0  0  0  0  0
   -7.8261   -2.0069  -23.2298 C   0  0  0  0  0  0  0  0  0  0  0  0
   -7.6861   -0.5568  -22.8722 C   0  0  0  0  0  0  0  0  0  0  0  0
   -6.7658   -0.1436  -21.7622 C   0  0  0  0  0  0  0  0  0  0  0  0
   -5.9854   -1.1803  -21.0097 N   0  0  0  0  0  0  0  0  0  0  0  0
   -7.6495    0.9229  -22.6290 C   0  0  0  0  0  0  0  0  0  0  0  0
   -6.8261    1.6256  -21.5906 O   0  0  0  0  0  0  0  0  0  0  0  0
   -8.5808    1.5765  -23.6065 N   0  0  0  0  0  0  0  0  0  0  0  0
   -9.1929    0.5007  -24.4539 C   0  0  0  0  0  0  0  0  0  0  0  0
   -8.6400   -0.8177  -24.0000 C   0  0  0  0  0  0  0  0  0  0  0  0
   -8.8522    3.0476  -23.7172 C   0  0  0  0  0  0  0  0  0  0  0  0
   -7.7118    4.0217  -23.7301 C   0  0  0  0  0  0  0  0  0  0  0  0
   -7.9832    5.4928  -23.8408 N   0  0  0  0  0  0  0  0  0  0  0  0
   -9.3952    5.9896  -23.9386 C   0  0  0  0  0  0  0  0  0  0  0  0
  -10.5356    5.0154  -23.9258 C   0  0  0  0  0  0  0  0  0  0  0  0
  -11.9476    5.5123  -24.0236 C   0  0  0  0  0  0  0  0  0  0  0  0
  -13.0881    4.5379  -24.0107 C   0  0  0  0  0  0  0  0  0  0  0  0
  -12.8166    3.0669  -23.9000 C   0  0  0  0  0  0  0  0  0  0  0  0
  -11.4046    2.5701  -23.8022 C   0  0  0  0  0  0  0  0  0  0  0  0
  -10.2642    3.5443  -23.8151 C   0  0  0  0  0  0  0  0  0  0  0  0
   -5.0651   -0.7670  -19.8996 C   0  0  0  0  0  0  0  0  0  0  0  0
   -4.1041    0.3662  -20.1048 C   0  0  0  0  0  0  0  0  0  0  0  0
   -3.8682    1.5047  -19.1571 N   0  0  0  0  0  0  0  0  0  0  0  0
   -2.8286    2.4021  -19.7603 N   0  0  0  0  0  0  0  0  0  0  0  0
   -2.4219    1.8182  -21.0808 C   0  0  0  0  0  0  0  0  0  0  0  0
   -3.2102    0.5600  -21.2937 O   0  0  0  0  0  0  0  0  0  0  0  0
   -8.9811   -2.1612  -24.5734 C   0  0  0  0  0  0  0  0  0  0  0  0
  -10.1056   -2.9630  -23.9881 N   0  0  0  0  0  0  0  0  0  0  0  0
   -9.9862   -3.9247  -23.8148 H   0  0  0  0  0  0  0  0  0  0  0  0
  -11.4119   -2.2996  -23.6670 C   0  0  0  0  0  0  0  0  0  0  0  0
  -12.2551   -2.8113  -22.5369 C   0  0  0  0  0  0  0  0  0  0  0  0
  -13.5616   -2.1479  -22.2157 C   0  0  0  0  0  0  0  0  0  0  0  0
  -14.0248   -0.9727  -23.0247 N   0  0  0  0  0  0  0  0  0  0  0  0
  -13.1816   -0.4610  -24.1548 C   0  0  0  0  0  0  0  0  0  0  0  0
  -11.8752   -1.1244  -24.4759 N   0  0  0  0  0  0  0  0  0  0  0  0
  1  2  2  0  0  0
  2  3  1  0  0  0
  3  4  2  0  0  0
  4  5  1  0  0  0
  5  6  2  0  0  0
  6  7  1  0  0  0
  6  8  1  0  0  0
  8  9  2  0  0  0
  9 10  1  0  0  0
 10 11  1  0  0  0
 11 12  1  0  0  0
 12 28  1  0  0  0
 28 29  1  0  0  0
 29 30  2  0  0  0
 30 31  1  0  0  0
 31 32  2  0  0  0
 32 33  1  0  0  0
 10 13  1  0  0  0
 13 14  2  0  0  0
 13 15  1  0  0  0
 15 18  1  0  0  0
 18 19  2  0  0  0
 19 20  1  0  0  0
 20 21  2  0  0  0
 21 22  1  0  0  0
 22 23  2  0  0  0
 23 24  1  0  0  0
 24 25  2  0  0  0
 25 26  1  0  0  0
 26 27  2  0  0  0
 15 16  1  0  0  0
 16 17  1  0  0  0
 17 34  1  0  0  0
 34 35  1  0  0  0
 35 37  1  0  0  0
 37 38  2  0  0  0
 38 39  1  0  0  0
 39 40  2  0  0  0
 40 41  1  0  0  0
 41 42  2  0  0  0
 12  2  1  0  0  0
 33 29  1  0  0  0
 27 18  1  0  0  0
 42 37  1  0  0  0
  9  3  1  0  0  0
 17 10  1  0  0  0
 27 22  1  0  0  0
 35 36  1  0  0  0
M  END
> <minimizedAffinity>
-9.34157

> <CNNscore>
0.3083009422

> <CNNaffinity>
6.7838683128

> <CNN_VS>
2.0914731026

> <CNNaffinity_variance>
0.4283983707

$$$$



 42 48  0  0  0  0  0  0  0  0999 V2000
   -8.0891   -2.6476  -21.2276 O   0  0  0  0  0  0  0  0  0  0  0  0
   -7.1305   -2.3694  -22.3472 C   0  0  0  0  0  0  0  0  0  0  0  0
   -6.7497   -3.4652  -23.2983 C   0  0  0  0  0  0  0  0  0  0  0  0
   -7.3275   -4.8391  -23.1296 C   0  0  0  0  0  0  0  0  0  0  0  0
   -6.9467   -5.9347  -24.0806 C   0  0  0  0  0  0  0  0  0  0  0  0
   -5.9881   -5.6565  -25.2003 C   0  0  0  0  0  0  0  0  0  0  0  0
   -5.8332   -6.9505  -25.9431 Cl  0  0  0  0  0  0  0  0  0  0  0  0
   -5.4103   -4.2826  -25.3689 C   0  0  0  0  0  0  0  0  0  0  0  0
   -5.7911   -3.1869  -24.4179 C   0  0  0  0  0  0  0  0  0  0  0  0
   -5.2132   -1.8130  -24.5865 C   0  0  0  0  0  0  0  0  0  0  0  0
   -5.5941   -0.7173  -23.6356 C   0  0  0  0  0  0  0  0  0  0  0  0
   -6.5527   -0.9955  -22.5159 N   0  0  0  0  0  0  0  0  0  0  0  0
   -4.5578   -0.4959  -24.8793 C   0  0  0  0  0  0  0  0  0  0  0  0
   -4.7458    0.7742  -24.1037 O   0  0  0  0  0  0  0  0  0  0  0  0
   -3.6812   -0.6719  -26.0837 N   0  0  0  0  0  0  0  0  0  0  0  0
   -3.7949   -2.0977  -26.5354 C   0  0  0  0  0  0  0  0  0  0  0  0
   -4.7418   -2.8029  -25.6101 C   0  0  0  0  0  0  0  0  0  0  0  0
   -2.8388    0.3913  -26.7240 C   0  0  0  0  0  0  0  0  0  0  0  0
   -3.2998    1.0531  -27.9886 C   0  0  0  0  0  0  0  0  0  0  0  0
   -2.4575    2.1163  -28.6289 N   0  0  0  0  0  0  0  0  0  0  0  0
   -1.1540    2.5177  -28.0045 C   0  0  0  0  0  0  0  0  0  0  0  0
   -0.6930    1.8558  -26.7398 C   0  0  0  0  0  0  0  0  0  0  0  0
    0.6106    2.2573  -26.1154 C   0  0  0  0  0  0  0  0  0  0  0  0
    1.0716    1.5954  -24.8507 C   0  0  0  0  0  0  0  0  0  0  0  0
    0.2292    0.5322  -24.2105 C   0  0  0  0  0  0  0  0  0  0  0  0
   -1.0743    0.1309  -24.8349 C   0  0  0  0  0  0  0  0  0  0  0  0
   -1.5353    0.7926  -26.0995 C   0  0  0  0  0  0  0  0  0  0  0  0
   -6.9335    0.1002  -21.5649 C   0  0  0  0  0  0  0  0  0  0  0  0
   -6.1621    0.2909  -20.2927 C   0  0  0  0  0  0  0  0  0  0  0  0
   -4.8606    1.0232  -20.1521 N   0  0  0  0  0  0  0  0  0  0  0  0
   -4.4508    0.9677  -18.7103 N   0  0  0  0  0  0  0  0  0  0  0  0
   -5.4991    0.2010  -17.9597 C   0  0  0  0  0  0  0  0  0  0  0  0
   -6.5567   -0.2173  -18.9377 O   0  0  0  0  0  0  0  0  0  0  0  0
   -5.1462   -4.2450  -25.6937 C   0  0  0  0  0  0  0  0  0  0  0  0
   -5.8554   -4.7557  -26.9128 N   0  0  0  0  0  0  0  0  0  0  0  0
   -5.4953   -5.5292  -27.4039 H   0  0  0  0  0  0  0  0  0  0  0  0
   -7.1133   -4.0879  -27.3836 C   0  0  0  0  0  0  0  0  0  0  0  0
   -7.0802   -2.6569  -27.8318 C   0  0  0  0  0  0  0  0  0  0  0  0
   -8.3382   -1.9891  -28.3026 C   0  0  0  0  0  0  0  0  0  0  0  0
   -9.6292   -2.7524  -28.3253 N   0  0  0  0  0  0  0  0  0  0  0  0
   -9.6623   -4.1835  -27.8770 C   0  0  0  0  0  0  0  0  0  0  0  0
   -8.4044   -4.8512  -27.4062 N   0  0  0  0  0  0  0  0  0  0  0  0
  1  2  2  0  0  0
  2  3  1  0  0  0
  3  4  2  0  0  0
  4  5  1  0  0  0
  5  6  2  0  0  0
  6  7  1  0  0  0
  6  8  1  0  0  0
  8  9  2  0  0  0
  9 10  1  0  0  0
 10 11  1  0  0  0
 11 12  1  0  0  0
 12 28  1  0  0  0
 28 29  1  0  0  0
 29 30  2  0  0  0
 30 31  1  0  0  0
 31 32  2  0  0  0
 32 33  1  0  0  0
 10 13  1  0  0  0
 13 14  2  0  0  0
 13 15  1  0  0  0
 15 18  1  0  0  0
 18 19  2  0  0  0
 19 20  1  0  0  0
 20 21  2  0  0  0
 21 22  1  0  0  0
 22 23  2  0  0  0
 23 24  1  0  0  0
 24 25  2  0  0  0
 25 26  1  0  0  0
 26 27  2  0  0  0
 15 16  1  0  0  0
 16 17  1  0  0  0
 17 34  1  0  0  0
 34 35  1  0  0  0
 35 37  1  0  0  0
 37 38  2  0  0  0
 38 39  1  0  0  0
 39 40  2  0  0  0
 40 41  1  0  0  0
 41 42  2  0  0  0
 12  2  1  0  0  0
 33 29  1  0  0  0
 27 18  1  0  0  0
 42 37  1  0  0  0
  9  3  1  0  0  0
 17 10  1  0  0  0
 27 22  1  0  0  0
 35 36  1  0  0  0
M  END
> <minimizedAffinity>
-4.62055

> <CNNscore>
0.2964140773

> <CNNaffinity>
6.4326181412

> <CNN_VS>
1.9067186117

> <CNNaffinity_variance>
0.5283433199

$$$$



 42 48  0  0  0  0  0  0  0  0999 V2000
   -5.0987   -3.4950  -21.3520 O   0  0  0  0  0  0  0  0  0  0  0  0
   -5.9891   -2.4847  -22.0127 C   0  0  0  0  0  0  0  0  0  0  0  0
   -7.1179   -2.9395  -22.8897 C   0  0  0  0  0  0  0  0  0  0  0  0
   -7.3562   -4.4045  -23.1059 C   0  0  0  0  0  0  0  0  0  0  0  0
   -8.4850   -4.8593  -23.9829 C   0  0  0  0  0  0  0  0  0  0  0  0
   -9.3754   -3.8490  -24.6435 C   0  0  0  0  0  0  0  0  0  0  0  0
  -10.3796   -4.6361  -25.4324 Cl  0  0  0  0  0  0  0  0  0  0  0  0
   -9.1370   -2.3840  -24.4273 C   0  0  0  0  0  0  0  0  0  0  0  0
   -8.0083   -1.9292  -23.5503 C   0  0  0  0  0  0  0  0  0  0  0  0
   -7.7698   -0.4641  -23.3340 C   0  0  0  0  0  0  0  0  0  0  0  0
   -6.6411   -0.0094  -22.4571 C   0  0  0  0  0  0  0  0  0  0  0  0
   -5.7507   -1.0197  -21.7964 N   0  0  0  0  0  0  0  0  0  0  0  0
   -7.6546    1.0264  -23.2117 C   0  0  0  0  0  0  0  0  0  0  0  0
   -6.6288    1.7684  -22.4073 O   0  0  0  0  0  0  0  0  0  0  0  0
   -8.7454    1.6448  -24.0351 N   0  0  0  0  0  0  0  0  0  0  0  0
   -9.5347    0.5364  -24.6663 C   0  0  0  0  0  0  0  0  0  0  0  0
   -8.9318   -0.7670  -24.2330 C   0  0  0  0  0  0  0  0  0  0  0  0
   -9.0017    3.1137  -24.1986 C   0  0  0  0  0  0  0  0  0  0  0  0
   -7.8540    4.0568  -24.4058 C   0  0  0  0  0  0  0  0  0  0  0  0
   -8.1103    5.5256  -24.5692 N   0  0  0  0  0  0  0  0  0  0  0  0
   -9.5145    6.0513  -24.5255 C   0  0  0  0  0  0  0  0  0  0  0  0
  -10.6623    5.1081  -24.3184 C   0  0  0  0  0  0  0  0  0  0  0  0
  -12.0666    5.6338  -24.2747 C   0  0  0  0  0  0  0  0  0  0  0  0
  -13.2143    4.6905  -24.0675 C   0  0  0  0  0  0  0  0  0  0  0  0
  -12.9579    3.2217  -23.9040 C   0  0  0  0  0  0  0  0  0  0  0  0
  -11.5537    2.6961  -23.9477 C   0  0  0  0  0  0  0  0  0  0  0  0
  -10.4060    3.6392  -24.1549 C   0  0  0  0  0  0  0  0  0  0  0  0
   -4.6219   -0.5649  -20.9194 C   0  0  0  0  0  0  0  0  0  0  0  0
   -4.8947   -0.1344  -19.5087 C   0  0  0  0  0  0  0  0  0  0  0  0
   -4.3277    1.0780  -18.8315 N   0  0  0  0  0  0  0  0  0  0  0  0
   -4.8649    1.1209  -17.4317 N   0  0  0  0  0  0  0  0  0  0  0  0
   -5.7641   -0.0650  -17.2437 C   0  0  0  0  0  0  0  0  0  0  0  0
   -5.7824   -0.8408  -18.5273 O   0  0  0  0  0  0  0  0  0  0  0  0
   -9.4073   -2.1333  -24.6291 C   0  0  0  0  0  0  0  0  0  0  0  0
  -10.3595   -2.8819  -23.7443 N   0  0  0  0  0  0  0  0  0  0  0  0
  -10.1089   -3.7643  -23.3868 H   0  0  0  0  0  0  0  0  0  0  0  0
  -11.6934   -2.2863  -23.4042 C   0  0  0  0  0  0  0  0  0  0  0  0
  -12.1173   -0.9901  -24.0289 C   0  0  0  0  0  0  0  0  0  0  0  0
  -13.4512   -0.3944  -23.6888 C   0  0  0  0  0  0  0  0  0  0  0  0
  -14.3613   -1.0949  -22.7239 N   0  0  0  0  0  0  0  0  0  0  0  0
  -13.9375   -2.3911  -22.0992 C   0  0  0  0  0  0  0  0  0  0  0  0
  -12.6036   -2.9867  -22.4393 N   0  0  0  0  0  0  0  0  0  0  0  0
  1  2  2  0  0  0
  2  3  1  0  0  0
  3  4  2  0  0  0
  4  5  1  0  0  0
  5  6  2  0  0  0
  6  7  1  0  0  0
  6  8  1  0  0  0
  8  9  2  0  0  0
  9 10  1  0  0  0
 10 11  1  0  0  0
 11 12  1  0  0  0
 12 28  1  0  0  0
 28 29  1  0  0  0
 29 30  2  0  0  0
 30 31  1  0  0  0
 31 32  2  0  0  0
 32 33  1  0  0  0
 10 13  1  0  0  0
 13 14  2  0  0  0
 13 15  1  0  0  0
 15 18  1  0  0  0
 18 19  2  0  0  0
 19 20  1  0  0  0
 20 21  2  0  0  0
 21 22  1  0  0  0
 22 23  2  0  0  0
 23 24  1  0  0  0
 24 25  2  0  0  0
 25 26  1  0  0  0
 26 27  2  0  0  0
 15 16  1  0  0  0
 16 17  1  0  0  0
 17 34  1  0  0  0
 34 35  1  0  0  0
 35 37  1  0  0  0
 37 38  2  0  0  0
 38 39  1  0  0  0
 39 40  2  0  0  0
 40 41  1  0  0  0
 41 42  2  0  0  0
 12  2  1  0  0  0
 33 29  1  0  0  0
 27 18  1  0  0  0
 42 37  1  0  0  0
  9  3  1  0  0  0
 17 10  1  0  0  0
 27 22  1  0  0  0
 35 36  1  0  0  0
M  END
> <minimizedAffinity>
-8.05599

> <CNNscore>
0.2886781096

> <CNNaffinity>
6.9494071007

> <CNN_VS>
2.0061416626

> <CNNaffinity_variance>
0.3018582761

$$$$



 42 48  0  0  0  0  0  0  0  0999 V2000
   -4.6898   -3.3561  -19.4219 O   0  0  0  0  0  0  0  0  0  0  0  0
   -5.8073   -2.9476  -20.3354 C   0  0  0  0  0  0  0  0  0  0  0  0
   -6.3223   -3.9080  -21.3663 C   0  0  0  0  0  0  0  0  0  0  0  0
   -5.7199   -5.2766  -21.4836 C   0  0  0  0  0  0  0  0  0  0  0  0
   -6.2349   -6.2369  -22.5144 C   0  0  0  0  0  0  0  0  0  0  0  0
   -7.3523   -5.8284  -23.4279 C   0  0  0  0  0  0  0  0  0  0  0  0
   -7.6118   -7.0085  -24.3169 Cl  0  0  0  0  0  0  0  0  0  0  0  0
   -7.9547   -4.4598  -23.3106 C   0  0  0  0  0  0  0  0  0  0  0  0
   -7.4397   -3.4995  -22.2798 C   0  0  0  0  0  0  0  0  0  0  0  0
   -8.0421   -2.1308  -22.1625 C   0  0  0  0  0  0  0  0  0  0  0  0
   -7.5271   -1.1705  -21.1316 C   0  0  0  0  0  0  0  0  0  0  0  0
   -6.4097   -1.5790  -20.2181 N   0  0  0  0  0  0  0  0  0  0  0  0
   -8.7398   -0.8029  -22.1632 C   0  0  0  0  0  0  0  0  0  0  0  0
   -8.4424    0.3498  -21.2504 O   0  0  0  0  0  0  0  0  0  0  0  0
   -9.7869   -0.8299  -23.2368 N   0  0  0  0  0  0  0  0  0  0  0  0
   -9.7365   -2.1746  -23.8997 C   0  0  0  0  0  0  0  0  0  0  0  0
   -8.6581   -2.9785  -23.2357 C   0  0  0  0  0  0  0  0  0  0  0  0
  -10.7206    0.2909  -23.5862 C   0  0  0  0  0  0  0  0  0  0  0  0
  -12.1873    0.1621  -23.2999 C   0  0  0  0  0  0  0  0  0  0  0  0
  -13.1209    1.2829  -23.6493 N   0  0  0  0  0  0  0  0  0  0  0  0
  -12.5878    2.5325  -24.2850 C   0  0  0  0  0  0  0  0  0  0  0  0
  -11.1210    2.6613  -24.5714 C   0  0  0  0  0  0  0  0  0  0  0  0
  -10.5879    3.9110  -25.2072 C   0  0  0  0  0  0  0  0  0  0  0  0
   -9.1211    4.0397  -25.4935 C   0  0  0  0  0  0  0  0  0  0  0  0
   -8.1875    2.9189  -25.1441 C   0  0  0  0  0  0  0  0  0  0  0  0
   -8.7207    1.6693  -24.5083 C   0  0  0  0  0  0  0  0  0  0  0  0
  -10.1873    1.5405  -24.2220 C   0  0  0  0  0  0  0  0  0  0  0  0
   -5.8946   -0.6186  -19.1873 C   0  0  0  0  0  0  0  0  0  0  0  0
   -4.7180    0.2575  -19.5000 C   0  0  0  0  0  0  0  0  0  0  0  0
   -4.1922    1.3679  -18.6394 N   0  0  0  0  0  0  0  0  0  0  0  0
   -3.0098    1.9738  -19.3357 N   0  0  0  0  0  0  0  0  0  0  0  0
   -2.8048    1.2378  -20.6266 C   0  0  0  0  0  0  0  0  0  0  0  0
   -3.8605    0.1771  -20.7281 O   0  0  0  0  0  0  0  0  0  0  0  0
   -8.2649   -4.3835  -23.5839 C   0  0  0  0  0  0  0  0  0  0  0  0
   -7.3255   -4.6386  -24.7252 N   0  0  0  0  0  0  0  0  0  0  0  0
   -6.3544   -4.5437  -24.5940 H   0  0  0  0  0  0  0  0  0  0  0  0
   -7.8656   -5.0384  -26.0662 C   0  0  0  0  0  0  0  0  0  0  0  0
   -6.9744   -5.7221  -27.0602 C   0  0  0  0  0  0  0  0  0  0  0  0
   -7.5145   -6.1219  -28.4013 C   0  0  0  0  0  0  0  0  0  0  0  0
   -8.9459   -5.8378  -28.7483 N   0  0  0  0  0  0  0  0  0  0  0  0
   -9.8372   -5.1541  -27.7542 C   0  0  0  0  0  0  0  0  0  0  0  0
   -9.2971   -4.7544  -26.4133 N   0  0  0  0  0  0  0  0  0  0  0  0
  1  2  2  0  0  0
  2  3  1  0  0  0
  3  4  2  0  0  0
  4  5  1  0  0  0
  5  6  2  0  0  0
  6  7  1  0  0  0
  6  8  1  0  0  0
  8  9  2  0  0  0
  9 10  1  0  0  0
 10 11  1  0  0  0
 11 12  1  0  0  0
 12 28  1  0  0  0
 28 29  1  0  0  0
 29 30  2  0  0  0
 30 31  1  0  0  0
 31 32  2  0  0  0
 32 33  1  0  0  0
 10 13  1  0  0  0
 13 14  2  0  0  0
 13 15  1  0  0  0
 15 18  1  0  0  0
 18 19  2  0  0  0
 19 20  1  0  0  0
 20 21  2  0  0  0
 21 22  1  0  0  0
 22 23  2  0  0  0
 23 24  1  0  0  0
 24 25  2  0  0  0
 25 26  1  0  0  0
 26 27  2  0  0  0
 15 16  1  0  0  0
 16 17  1  0  0  0
 17 34  1  0  0  0
 34 35  1  0  0  0
 35 37  1  0  0  0
 37 38  2  0  0  0
 38 39  1  0  0  0
 39 40  2  0  0  0
 40 41  1  0  0  0
 41 42  2  0  0  0
 12  2  1  0  0  0
 33 29  1  0  0  0
 27 18  1  0  0  0
 42 37  1  0  0  0
  9  3  1  0  0  0
 17 10  1  0  0  0
 27 22  1  0  0  0
 35 36  1  0  0  0
M  END
> <minimizedAffinity>
-8.81230

> <CNNscore>
0.2676381469

> <CNNaffinity>
6.5093317032

> <CNN_VS>
1.7421454191

> <CNNaffinity_variance>
0.5263506770

$$$$



 42 48  0  0  0  0  0  0  0  0999 V2000
   -3.2253   -2.0163  -26.2468 O   0  0  0  0  0  0  0  0  0  0  0  0
   -4.3526   -1.2615  -25.6070 C   0  0  0  0  0  0  0  0  0  0  0  0
   -4.0617   -0.2027  -24.5850 C   0  0  0  0  0  0  0  0  0  0  0  0
   -2.6434    0.1013  -24.2029 C   0  0  0  0  0  0  0  0  0  0  0  0
   -2.3525    1.1600  -23.1810 C   0  0  0  0  0  0  0  0  0  0  0  0
   -3.4799    1.9148  -22.5412 C   0  0  0  0  0  0  0  0  0  0  0  0
   -2.8419    2.8792  -21.5855 Cl  0  0  0  0  0  0  0  0  0  0  0  0
   -4.8981    1.6108  -22.9233 C   0  0  0  0  0  0  0  0  0  0  0  0
   -5.1890    0.5521  -23.9452 C   0  0  0  0  0  0  0  0  0  0  0  0
   -6.6074    0.2481  -24.3274 C   0  0  0  0  0  0  0  0  0  0  0  0
   -6.8983   -0.8107  -25.3493 C   0  0  0  0  0  0  0  0  0  0  0  0
   -5.7709   -1.5655  -25.9891 N   0  0  0  0  0  0  0  0  0  0  0  0
   -8.0684    0.0552  -24.6071 C   0  0  0  0  0  0  0  0  0  0  0  0
   -8.6586   -0.9263  -25.5758 O   0  0  0  0  0  0  0  0  0  0  0  0
   -8.8357    1.0162  -23.7481 N   0  0  0  0  0  0  0  0  0  0  0  0
   -7.8488    1.8030  -22.9375 C   0  0  0  0  0  0  0  0  0  0  0  0
   -6.4717    1.3282  -23.2955 C   0  0  0  0  0  0  0  0  0  0  0  0
  -10.3278    1.1643  -23.7070 C   0  0  0  0  0  0  0  0  0  0  0  0
  -10.9606    2.4795  -24.0526 C   0  0  0  0  0  0  0  0  0  0  0  0
  -12.4527    2.6277  -24.0115 N   0  0  0  0  0  0  0  0  0  0  0  0
  -13.3119    1.4605  -23.6248 C   0  0  0  0  0  0  0  0  0  0  0  0
  -12.6790    0.1452  -23.2793 C   0  0  0  0  0  0  0  0  0  0  0  0
  -13.5382   -1.0220  -22.8926 C   0  0  0  0  0  0  0  0  0  0  0  0
  -12.9052   -2.3373  -22.5470 C   0  0  0  0  0  0  0  0  0  0  0  0
  -11.4131   -2.4853  -22.5882 C   0  0  0  0  0  0  0  0  0  0  0  0
  -10.5540   -1.3182  -22.9748 C   0  0  0  0  0  0  0  0  0  0  0  0
  -11.1869   -0.0029  -23.3204 C   0  0  0  0  0  0  0  0  0  0  0  0
   -6.0619   -2.6243  -27.0111 C   0  0  0  0  0  0  0  0  0  0  0  0
   -7.1276   -3.6468  -26.7492 C   0  0  0  0  0  0  0  0  0  0  0  0
   -7.4253   -4.2915  -25.4279 N   0  0  0  0  0  0  0  0  0  0  0  0
   -8.5645   -5.2472  -25.6247 N   0  0  0  0  0  0  0  0  0  0  0  0
   -8.9709   -5.1932  -27.0676 C   0  0  0  0  0  0  0  0  0  0  0  0
   -8.0829   -4.2041  -27.7625 O   0  0  0  0  0  0  0  0  0  0  0  0
   -5.1848    1.8433  -22.7222 C   0  0  0  0  0  0  0  0  0  0  0  0
   -5.0459    2.0318  -21.2406 N   0  0  0  0  0  0  0  0  0  0  0  0
   -4.6931    2.8785  -20.8831 H   0  0  0  0  0  0  0  0  0  0  0  0
   -5.4445    0.9303  -20.3038 C   0  0  0  0  0  0  0  0  0  0  0  0
   -4.6810    0.7156  -19.0306 C   0  0  0  0  0  0  0  0  0  0  0  0
   -5.0796   -0.3859  -18.0937 C   0  0  0  0  0  0  0  0  0  0  0  0
   -6.2416   -1.2728  -18.4300 N   0  0  0  0  0  0  0  0  0  0  0  0
   -7.0051   -1.0581  -19.7031 C   0  0  0  0  0  0  0  0  0  0  0  0
   -6.6066    0.0434  -20.6400 N   0  0  0  0  0  0  0  0  0  0  0  0
  1  2  2  0  0  0
  2  3  1  0  0  0
  3  4  2  0  0  0
  4  5  1  0  0  0
  5  6  2  0  0  0
  6  7  1  0  0  0
  6  8  1  0  0  0
  8  9  2  0  0  0
  9 10  1  0  0  0
 10 11  1  0  0  0
 11 12  1  0  0  0
 12 28  1  0  0  0
 28 29  1  0  0  0
 29 30  2  0  0  0
 30 31  1  0  0  0
 31 32  2  0  0  0
 32 33  1  0  0  0
 10 13  1  0  0  0
 13 14  2  0  0  0
 13 15  1  0  0  0
 15 18  1  0  0  0
 18 19  2  0  0  0
 19 20  1  0  0  0
 20 21  2  0  0  0
 21 22  1  0  0  0
 22 23  2  0  0  0
 23 24  1  0  0  0
 24 25  2  0  0  0
 25 26  1  0  0  0
 26 27  2  0  0  0
 15 16  1  0  0  0
 16 17  1  0  0  0
 17 34  1  0  0  0
 34 35  1  0  0  0
 35 37  1  0  0  0
 37 38  2  0  0  0
 38 39  1  0  0  0
 39 40  2  0  0  0
 40 41  1  0  0  0
 41 42  2  0  0  0
 12  2  1  0  0  0
 33 29  1  0  0  0
 27 18  1  0  0  0
 42 37  1  0  0  0
  9  3  1  0  0  0
 17 10  1  0  0  0
 27 22  1  0  0  0
 35 36  1  0  0  0
M  END
> <minimizedAffinity>
-8.27551

> <CNNscore>
0.2505913973

> <CNNaffinity>
6.6877608299

> <CNN_VS>
1.6758953333

> <CNNaffinity_variance>
0.1243178025

$$$$



 42 48  0  0  0  0  0  0  0  0999 V2000
  -13.8533    2.3213  -23.6204 O   0  0  0  0  0  0  0  0  0  0  0  0
  -12.3602    2.1818  -23.5855 C   0  0  0  0  0  0  0  0  0  0  0  0
  -11.7359    0.8205  -23.4999 C   0  0  0  0  0  0  0  0  0  0  0  0
  -12.6047   -0.4012  -23.4492 C   0  0  0  0  0  0  0  0  0  0  0  0
  -11.9804   -1.7623  -23.3636 C   0  0  0  0  0  0  0  0  0  0  0  0
  -10.4873   -1.9018  -23.3287 C   0  0  0  0  0  0  0  0  0  0  0  0
  -10.2115   -3.3739  -23.2435 Cl  0  0  0  0  0  0  0  0  0  0  0  0
   -9.6185   -0.6801  -23.3794 C   0  0  0  0  0  0  0  0  0  0  0  0
  -10.2428    0.6811  -23.4650 C   0  0  0  0  0  0  0  0  0  0  0  0
   -9.3740    1.9029  -23.5156 C   0  0  0  0  0  0  0  0  0  0  0  0
   -9.9983    3.2640  -23.6012 C   0  0  0  0  0  0  0  0  0  0  0  0
  -11.4914    3.4035  -23.6362 N   0  0  0  0  0  0  0  0  0  0  0  0
   -8.3822    3.0273  -23.5588 C   0  0  0  0  0  0  0  0  0  0  0  0
   -8.7093    4.4887  -23.6444 O   0  0  0  0  0  0  0  0  0  0  0  0
   -7.0058    2.4338  -23.5012 N   0  0  0  0  0  0  0  0  0  0  0  0
   -7.1469    0.9426  -23.4226 C   0  0  0  0  0  0  0  0  0  0  0  0
   -8.6106    0.6144  -23.4315 C   0  0  0  0  0  0  0  0  0  0  0  0
   -5.7149    3.1976  -23.5192 C   0  0  0  0  0  0  0  0  0  0  0  0
   -5.4404    4.1807  -24.6183 C   0  0  0  0  0  0  0  0  0  0  0  0
   -4.1495    4.9444  -24.6363 N   0  0  0  0  0  0  0  0  0  0  0  0
   -3.1331    4.7250  -23.5552 C   0  0  0  0  0  0  0  0  0  0  0  0
   -3.4077    3.7418  -22.4561 C   0  0  0  0  0  0  0  0  0  0  0  0
   -2.3912    3.5223  -21.3749 C   0  0  0  0  0  0  0  0  0  0  0  0
   -2.6658    2.5391  -20.2759 C   0  0  0  0  0  0  0  0  0  0  0  0
   -3.9567    1.7754  -20.2579 C   0  0  0  0  0  0  0  0  0  0  0  0
   -4.9730    1.9949  -21.3390 C   0  0  0  0  0  0  0  0  0  0  0  0
   -4.6985    2.9780  -22.4381 C   0  0  0  0  0  0  0  0  0  0  0  0
  -12.1157    4.7648  -23.7217 C   0  0  0  0  0  0  0  0  0  0  0  0
  -12.3664    5.3921  -25.0610 C   0  0  0  0  0  0  0  0  0  0  0  0
  -11.3209    5.7616  -26.0711 N   0  0  0  0  0  0  0  0  0  0  0  0
  -12.0149    6.3579  -27.2597 N   0  0  0  0  0  0  0  0  0  0  0  0
  -13.4894    6.3569  -26.9842 C   0  0  0  0  0  0  0  0  0  0  0  0
  -13.7066    5.7600  -25.6253 O   0  0  0  0  0  0  0  0  0  0  0  0
   -9.2062   -0.7608  -23.3675 C   0  0  0  0  0  0  0  0  0  0  0  0
   -9.1490   -1.5443  -22.0896 N   0  0  0  0  0  0  0  0  0  0  0  0
   -9.9406   -2.0420  -21.7816 H   0  0  0  0  0  0  0  0  0  0  0  0
   -7.8859   -1.5693  -21.2810 C   0  0  0  0  0  0  0  0  0  0  0  0
   -6.7176   -2.3904  -21.7402 C   0  0  0  0  0  0  0  0  0  0  0  0
   -5.4545   -2.4155  -20.9316 C   0  0  0  0  0  0  0  0  0  0  0  0
   -5.3597   -1.6195  -19.6637 N   0  0  0  0  0  0  0  0  0  0  0  0
   -6.5280   -0.7984  -19.2046 C   0  0  0  0  0  0  0  0  0  0  0  0
   -7.7911   -0.7733  -20.0132 N   0  0  0  0  0  0  0  0  0  0  0  0
  1  2  2  0  0  0
  2  3  1  0  0  0
  3  4  2  0  0  0
  4  5  1  0  0  0
  5  6  2  0  0  0
  6  7  1  0  0  0
  6  8  1  0  0  0
  8  9  2  0  0  0
  9 10  1  0  0  0
 10 11  1  0  0  0
 11 12  1  0  0  0
 12 28  1  0  0  0
 28 29  1  0  0  0
 29 30  2  0  0  0
 30 31  1  0  0  0
 31 32  2  0  0  0
 32 33  1  0  0  0
 10 13  1  0  0  0
 13 14  2  0  0  0
 13 15  1  0  0  0
 15 18  1  0  0  0
 18 19  2  0  0  0
 19 20  1  0  0  0
 20 21  2  0  0  0
 21 22  1  0  0  0
 22 23  2  0  0  0
 23 24  1  0  0  0
 24 25  2  0  0  0
 25 26  1  0  0  0
 26 27  2  0  0  0
 15 16  1  0  0  0
 16 17  1  0  0  0
 17 34  1  0  0  0
 34 35  1  0  0  0
 35 37  1  0  0  0
 37 38  2  0  0  0
 38 39  1  0  0  0
 39 40  2  0  0  0
 40 41  1  0  0  0
 41 42  2  0  0  0
 12  2  1  0  0  0
 33 29  1  0  0  0
 27 18  1  0  0  0
 42 37  1  0  0  0
  9  3  1  0  0  0
 17 10  1  0  0  0
 27 22  1  0  0  0
 35 36  1  0  0  0
M  END
> <minimizedAffinity>
-8.12530

> <CNNscore>
0.2388990968

> <CNNaffinity>
6.6618232727

> <CNN_VS>
1.5915036201

> <CNNaffinity_variance>
0.0439247377

$$$$



 42 48  0  0  0  0  0  0  0  0999 V2000
  -11.3140   -4.8308  -25.4151 O   0  0  0  0  0  0  0  0  0  0  0  0
  -10.1131   -4.3964  -24.6283 C   0  0  0  0  0  0  0  0  0  0  0  0
   -8.7714   -5.0054  -24.9100 C   0  0  0  0  0  0  0  0  0  0  0  0
   -8.6308   -6.0486  -25.9786 C   0  0  0  0  0  0  0  0  0  0  0  0
   -7.2892   -6.6575  -26.2602 C   0  0  0  0  0  0  0  0  0  0  0  0
   -6.0883   -6.2231  -25.4734 C   0  0  0  0  0  0  0  0  0  0  0  0
   -4.9346   -7.0204  -26.0059 Cl  0  0  0  0  0  0  0  0  0  0  0  0
   -6.2289   -5.1798  -24.4049 C   0  0  0  0  0  0  0  0  0  0  0  0
   -7.5705   -4.5710  -24.1232 C   0  0  0  0  0  0  0  0  0  0  0  0
   -7.7113   -3.5277  -23.0546 C   0  0  0  0  0  0  0  0  0  0  0  0
   -9.0528   -2.9188  -22.7729 C   0  0  0  0  0  0  0  0  0  0  0  0
  -10.2537   -3.3532  -23.5598 N   0  0  0  0  0  0  0  0  0  0  0  0
   -7.6977   -2.5007  -21.9614 C   0  0  0  0  0  0  0  0  0  0  0  0
   -8.8827   -1.7277  -21.4631 O   0  0  0  0  0  0  0  0  0  0  0  0
   -6.2911   -2.3823  -21.4540 N   0  0  0  0  0  0  0  0  0  0  0  0
   -5.4353   -3.3362  -22.2335 C   0  0  0  0  0  0  0  0  0  0  0  0
   -6.3130   -4.0440  -23.2228 C   0  0  0  0  0  0  0  0  0  0  0  0
   -5.8226   -1.4702  -20.3592 C   0  0  0  0  0  0  0  0  0  0  0  0
   -6.3474   -1.6412  -18.9645 C   0  0  0  0  0  0  0  0  0  0  0  0
   -5.8790   -0.7291  -17.8697 N   0  0  0  0  0  0  0  0  0  0  0  0
   -4.8856    0.3540  -18.1697 C   0  0  0  0  0  0  0  0  0  0  0  0
   -4.3608    0.5251  -19.5644 C   0  0  0  0  0  0  0  0  0  0  0  0
   -3.3674    1.6083  -19.8644 C   0  0  0  0  0  0  0  0  0  0  0  0
   -2.8426    1.7793  -21.2592 C   0  0  0  0  0  0  0  0  0  0  0  0
   -3.3111    0.8672  -22.3539 C   0  0  0  0  0  0  0  0  0  0  0  0
   -4.3044   -0.2159  -22.0539 C   0  0  0  0  0  0  0  0  0  0  0  0
   -4.8293   -0.3870  -20.6592 C   0  0  0  0  0  0  0  0  0  0  0  0
  -11.5954   -2.7443  -23.2780 C   0  0  0  0  0  0  0  0  0  0  0  0
  -11.7989   -1.2676  -23.4454 C   0  0  0  0  0  0  0  0  0  0  0  0
  -10.7988   -0.2971  -24.0004 N   0  0  0  0  0  0  0  0  0  0  0  0
  -11.4200    1.0681  -23.9852 N   0  0  0  0  0  0  0  0  0  0  0  0
  -12.8040    0.9414  -23.4208 C   0  0  0  0  0  0  0  0  0  0  0  0
  -13.0381   -0.5022  -23.0872 O   0  0  0  0  0  0  0  0  0  0  0  0
   -5.8702   -5.0854  -24.2073 C   0  0  0  0  0  0  0  0  0  0  0  0
   -4.7724   -4.7776  -25.1820 N   0  0  0  0  0  0  0  0  0  0  0  0
   -3.9952   -5.3777  -25.2537 H   0  0  0  0  0  0  0  0  0  0  0  0
   -4.8586   -3.5556  -26.0475 C   0  0  0  0  0  0  0  0  0  0  0  0
   -4.6654   -2.1952  -25.4459 C   0  0  0  0  0  0  0  0  0  0  0  0
   -4.7517   -0.9732  -26.3114 C   0  0  0  0  0  0  0  0  0  0  0  0
   -5.0311   -1.1116  -27.7786 N   0  0  0  0  0  0  0  0  0  0  0  0
   -5.2243   -2.4720  -28.3803 C   0  0  0  0  0  0  0  0  0  0  0  0
   -5.1381   -3.6939  -27.5148 N   0  0  0  0  0  0  0  0  0  0  0  0
  1  2  2  0  0  0
  2  3  1  0  0  0
  3  4  2  0  0  0
  4  5  1  0  0  0
  5  6  2  0  0  0
  6  7  1  0  0  0
  6  8  1  0  0  0
  8  9  2  0  0  0
  9 10  1  0  0  0
 10 11  1  0  0  0
 11 12  1  0  0  0
 12 28  1  0  0  0
 28 29  1  0  0  0
 29 30  2  0  0  0
 30 31  1  0  0  0
 31 32  2  0  0  0
 32 33  1  0  0  0
 10 13  1  0  0  0
 13 14  2  0  0  0
 13 15  1  0  0  0
 15 18  1  0  0  0
 18 19  2  0  0  0
 19 20  1  0  0  0
 20 21  2  0  0  0
 21 22  1  0  0  0
 22 23  2  0  0  0
 23 24  1  0  0  0
 24 25  2  0  0  0
 25 26  1  0  0  0
 26 27  2  0  0  0
 15 16  1  0  0  0
 16 17  1  0  0  0
 17 34  1  0  0  0
 34 35  1  0  0  0
 35 37  1  0  0  0
 37 38  2  0  0  0
 38 39  1  0  0  0
 39 40  2  0  0  0
 40 41  1  0  0  0
 41 42  2  0  0  0
 12  2  1  0  0  0
 33 29  1  0  0  0
 27 18  1  0  0  0
 42 37  1  0  0  0
  9  3  1  0  0  0
 17 10  1  0  0  0
 27 22  1  0  0  0
 35 36  1  0  0  0
M  END
> <minimizedAffinity>
-8.26932

> <CNNscore>
0.2102049291

> <CNNaffinity>
6.5823020935

> <CNN_VS>
1.3836323023

> <CNNaffinity_variance>
0.0865391344

$$$$



 42 48  0  0  0  0  0  0  0  0999 V2000
   -5.0329   -3.4696  -18.8111 O   0  0  0  0  0  0  0  0  0  0  0  0
   -5.5024   -3.0794  -20.1813 C   0  0  0  0  0  0  0  0  0  0  0  0
   -5.7978   -4.1377  -21.2025 C   0  0  0  0  0  0  0  0  0  0  0  0
   -5.6237   -5.5861  -20.8535 C   0  0  0  0  0  0  0  0  0  0  0  0
   -5.9192   -6.6444  -21.8747 C   0  0  0  0  0  0  0  0  0  0  0  0
   -6.3886   -6.2542  -23.2448 C   0  0  0  0  0  0  0  0  0  0  0  0
   -6.5854   -7.5379  -23.9955 Cl  0  0  0  0  0  0  0  0  0  0  0  0
   -6.5627   -4.8058  -23.5938 C   0  0  0  0  0  0  0  0  0  0  0  0
   -6.2673   -3.7476  -22.5727 C   0  0  0  0  0  0  0  0  0  0  0  0
   -6.4413   -2.2991  -22.9216 C   0  0  0  0  0  0  0  0  0  0  0  0
   -6.1459   -1.2409  -21.9005 C   0  0  0  0  0  0  0  0  0  0  0  0
   -5.6764   -1.6310  -20.5303 N   0  0  0  0  0  0  0  0  0  0  0  0
   -6.6606   -0.8990  -23.4131 C   0  0  0  0  0  0  0  0  0  0  0  0
   -6.4489    0.3569  -22.6206 O   0  0  0  0  0  0  0  0  0  0  0  0
   -7.1287   -0.9751  -24.8361 N   0  0  0  0  0  0  0  0  0  0  0  0
   -7.1988   -2.4223  -25.2242 C   0  0  0  0  0  0  0  0  0  0  0  0
   -6.7740   -3.2406  -24.0410 C   0  0  0  0  0  0  0  0  0  0  0  0
   -7.4673    0.1912  -25.7165 C   0  0  0  0  0  0  0  0  0  0  0  0
   -6.6989    0.4224  -26.9837 C   0  0  0  0  0  0  0  0  0  0  0  0
   -7.0375    1.5887  -27.8640 N   0  0  0  0  0  0  0  0  0  0  0  0
   -8.1446    2.5238  -27.4771 C   0  0  0  0  0  0  0  0  0  0  0  0
   -8.9131    2.2927  -26.2098 C   0  0  0  0  0  0  0  0  0  0  0  0
  -10.0203    3.2279  -25.8229 C   0  0  0  0  0  0  0  0  0  0  0  0
  -10.7887    2.9966  -24.5556 C   0  0  0  0  0  0  0  0  0  0  0  0
  -10.4501    1.8303  -23.6753 C   0  0  0  0  0  0  0  0  0  0  0  0
   -9.3430    0.8952  -24.0623 C   0  0  0  0  0  0  0  0  0  0  0  0
   -8.5745    1.1263  -25.3295 C   0  0  0  0  0  0  0  0  0  0  0  0
   -5.3810   -0.5727  -19.5091 C   0  0  0  0  0  0  0  0  0  0  0  0
   -4.2651    0.4025  -19.7409 C   0  0  0  0  0  0  0  0  0  0  0  0
   -3.8309    1.4857  -18.7985 N   0  0  0  0  0  0  0  0  0  0  0  0
   -2.6850    2.2184  -19.4310 N   0  0  0  0  0  0  0  0  0  0  0  0
   -2.4110    1.5881  -20.7643 C   0  0  0  0  0  0  0  0  0  0  0  0
   -3.3876    0.4658  -20.9558 O   0  0  0  0  0  0  0  0  0  0  0  0
   -6.6955   -4.7376  -23.9867 C   0  0  0  0  0  0  0  0  0  0  0  0
   -7.8630   -5.5666  -24.4337 N   0  0  0  0  0  0  0  0  0  0  0  0
   -8.4604   -5.9756  -23.7666 H   0  0  0  0  0  0  0  0  0  0  0  0
   -8.1202   -5.7725  -25.8970 C   0  0  0  0  0  0  0  0  0  0  0  0
   -6.9691   -5.8982  -26.8504 C   0  0  0  0  0  0  0  0  0  0  0  0
   -7.2264   -6.1042  -28.3138 C   0  0  0  0  0  0  0  0  0  0  0  0
   -8.6348   -6.1844  -28.8237 N   0  0  0  0  0  0  0  0  0  0  0  0
   -9.7859   -6.0587  -27.8702 C   0  0  0  0  0  0  0  0  0  0  0  0
   -9.5286   -5.8528  -26.4069 N   0  0  0  0  0  0  0  0  0  0  0  0
  1  2  2  0  0  0
  2  3  1  0  0  0
  3  4  2  0  0  0
  4  5  1  0  0  0
  5  6  2  0  0  0
  6  7  1  0  0  0
  6  8  1  0  0  0
  8  9  2  0  0  0
  9 10  1  0  0  0
 10 11  1  0  0  0
 11 12  1  0  0  0
 12 28  1  0  0  0
 28 29  1  0  0  0
 29 30  2  0  0  0
 30 31  1  0  0  0
 31 32  2  0  0  0
 32 33  1  0  0  0
 10 13  1  0  0  0
 13 14  2  0  0  0
 13 15  1  0  0  0
 15 18  1  0  0  0
 18 19  2  0  0  0
 19 20  1  0  0  0
 20 21  2  0  0  0
 21 22  1  0  0  0
 22 23  2  0  0  0
 23 24  1  0  0  0
 24 25  2  0  0  0
 25 26  1  0  0  0
 26 27  2  0  0  0
 15 16  1  0  0  0
 16 17  1  0  0  0
 17 34  1  0  0  0
 34 35  1  0  0  0
 35 37  1  0  0  0
 37 38  2  0  0  0
 38 39  1  0  0  0
 39 40  2  0  0  0
 40 41  1  0  0  0
 41 42  2  0  0  0
 12  2  1  0  0  0
 33 29  1  0  0  0
 27 18  1  0  0  0
 42 37  1  0  0  0
  9  3  1  0  0  0
 17 10  1  0  0  0
 27 22  1  0  0  0
 35 36  1  0  0  0
M  END
> <minimizedAffinity>
-8.26151

> <CNNscore>
0.1992524862

> <CNNaffinity>
6.4987745285

> <CNN_VS>
1.2948969603

> <CNNaffinity_variance>
0.2513000071

$$$$
