


 39 45  0  0  0  0  0  0  0  0999 V2000
  -12.9411   -0.4382  -23.1449 C   0  0  0  0  0  0  0  0  0  0  0  0
  -12.1818    0.7975  -23.5280 C   0  0  0  0  0  0  0  0  0  0  0  0
  -13.0921    1.9670  -23.7595 C   0  0  0  0  0  0  0  0  0  0  0  0
  -12.2449    3.1465  -24.1350 N   0  0  0  0  0  0  0  0  0  0  0  0
  -10.8111    2.7059  -24.1356 C   0  0  0  0  0  0  0  0  0  0  0  0
   -9.6246    3.5661  -24.4553 O   0  0  0  0  0  0  0  0  0  0  0  0
  -10.7721    1.2541  -23.7605 C   0  0  0  0  0  0  0  0  0  0  0  0
   -9.4222    1.8523  -24.0250 C   0  0  0  0  0  0  0  0  0  0  0  0
   -8.1899    1.0058  -23.9036 N   0  0  0  0  0  0  0  0  0  0  0  0
   -8.3074   -0.4389  -23.5177 C   0  0  0  0  0  0  0  0  0  0  0  0
   -7.0750   -1.2854  -23.3964 O   0  0  0  0  0  0  0  0  0  0  0  0
   -9.6573   -1.0372  -23.2532 C   0  0  0  0  0  0  0  0  0  0  0  0
   -9.7748   -2.4819  -22.8672 C   0  0  0  0  0  0  0  0  0  0  0  0
  -11.1246   -3.0801  -22.6027 C   0  0  0  0  0  0  0  0  0  0  0  0
  -12.3570   -2.2336  -22.7241 C   0  0  0  0  0  0  0  0  0  0  0  0
  -13.7069   -2.8318  -22.4595 Cl  0  0  0  0  0  0  0  0  0  0  0  0
  -12.2395   -0.7889  -23.1100 C   0  0  0  0  0  0  0  0  0  0  0  0
  -10.8896   -0.1907  -23.3745 C   0  0  0  0  0  0  0  0  0  0  0  0
  -12.7439    4.5247  -24.4539 C   0  0  0  0  0  0  0  0  0  0  0  0
  -13.5107    5.3014  -23.4251 C   0  0  0  0  0  0  0  0  0  0  0  0
  -14.0097    6.6796  -23.7440 N   0  0  0  0  0  0  0  0  0  0  0  0
  -13.7419    7.2809  -25.0919 C   0  0  0  0  0  0  0  0  0  0  0  0
  -12.9751    6.5041  -26.1208 C   0  0  0  0  0  0  0  0  0  0  0  0
  -12.7073    7.1055  -27.4687 C   0  0  0  0  0  0  0  0  0  0  0  0
  -11.9405    6.3286  -28.4975 C   0  0  0  0  0  0  0  0  0  0  0  0
  -11.4415    4.9505  -28.1785 C   0  0  0  0  0  0  0  0  0  0  0  0
  -11.7093    4.3492  -26.8307 C   0  0  0  0  0  0  0  0  0  0  0  0
  -12.4761    5.1259  -25.8018 C   0  0  0  0  0  0  0  0  0  0  0  0
   -6.8400    1.6041  -24.1682 C   0  0  0  0  0  0  0  0  0  0  0  0
   -5.6000    0.8747  -23.7434 C   0  0  0  0  0  0  0  0  0  0  0  0
   -5.2122    0.8352  -22.2950 N   0  0  0  0  0  0  0  0  0  0  0  0
   -3.9665    1.4213  -21.6996 C   0  0  0  0  0  0  0  0  0  0  0  0
   -3.9864    1.1510  -20.2243 C   0  0  0  0  0  0  0  0  0  0  0  0
   -5.2445    0.3979  -19.9079 C   0  0  0  0  0  0  0  0  0  0  0  0
   -6.4264   -0.3521  -19.3689 C   0  0  0  0  0  0  0  0  0  0  0  0
   -5.8465   -0.2733  -17.9877 O   0  0  0  0  0  0  0  0  0  0  0  0
   -4.6646    0.4767  -18.5268 C   0  0  0  0  0  0  0  0  0  0  0  0
   -6.0021    0.2027  -21.1877 C   0  0  0  0  0  0  0  0  0  0  0  0
   -4.5697    1.3037  -22.9338 H   0  0  0  0  0  0  0  0  0  0  0  0
  2  1  1  0  0  0
  2  3  1  0  0  0
  3  4  1  0  0  0
  4 19  1  0  0  0
 19 20  2  0  0  0
 20 21  1  0  0  0
 21 22  2  0  0  0
 22 23  1  0  0  0
 23 24  2  0  0  0
 24 25  1  0  0  0
 25 26  2  0  0  0
 26 27  1  0  0  0
 27 28  2  0  0  0
  4  5  1  0  0  0
  5  6  2  0  0  0
  5  7  1  0  0  0
  7  8  1  0  0  0
  8  9  1  0  0  0
  9 29  1  0  0  0
 29 30  1  0  0  0
 31 30  1  0  0  0
 31 32  1  0  0  0
 32 33  1  0  0  0
 33 34  1  0  0  0
 34 35  1  0  0  0
 35 36  1  0  0  0
 36 37  1  0  0  0
 34 38  1  0  0  0
  9 10  1  0  0  0
 10 11  2  0  0  0
 10 12  1  0  0  0
 12 13  2  0  0  0
 13 14  1  0  0  0
 14 15  2  0  0  0
 15 16  1  0  0  0
 15 17  1  0  0  0
 17 18  2  0  0  0
  7  2  1  0  0  0
 38 31  1  0  0  0
 18 12  1  0  0  0
 28 19  1  0  0  0
 18  7  1  0  0  0
 28 23  1  0  0  0
 37 34  1  0  0  0
 31 39  1  0  0  0
M  CHG 1  31   1
M  END
> <minimizedAffinity>
-9.13093

> <CNNscore>
0.6299445033

> <CNNaffinity>
6.8246908188

> <CNN_VS>
4.2991766930

> <CNNaffinity_variance>
0.0811165199

$$$$



 39 45  0  0  0  0  0  0  0  0999 V2000
   -7.2187    0.5841  -21.3987 C   0  0  0  0  0  0  0  0  0  0  0  0
   -8.4491    0.3588  -22.2267 C   0  0  0  0  0  0  0  0  0  0  0  0
   -9.2404    1.6196  -22.4118 C   0  0  0  0  0  0  0  0  0  0  0  0
  -10.4429    1.2937  -23.2471 N   0  0  0  0  0  0  0  0  0  0  0  0
  -10.3948   -0.1685  -23.5783 C   0  0  0  0  0  0  0  0  0  0  0  0
  -11.4021   -0.9208  -24.3964 O   0  0  0  0  0  0  0  0  0  0  0  0
   -9.1625   -0.7463  -22.9476 C   0  0  0  0  0  0  0  0  0  0  0  0
   -9.9833   -1.7443  -23.7094 C   0  0  0  0  0  0  0  0  0  0  0  0
   -9.5420   -3.1759  -23.7861 N   0  0  0  0  0  0  0  0  0  0  0  0
   -8.2799   -3.6094  -23.1011 C   0  0  0  0  0  0  0  0  0  0  0  0
   -7.8386   -5.0410  -23.1778 O   0  0  0  0  0  0  0  0  0  0  0  0
   -7.4591   -2.6114  -22.3393 C   0  0  0  0  0  0  0  0  0  0  0  0
   -6.1971   -3.0449  -21.6542 C   0  0  0  0  0  0  0  0  0  0  0  0
   -5.3764   -2.0469  -20.8924 C   0  0  0  0  0  0  0  0  0  0  0  0
   -5.8177   -0.6154  -20.8157 C   0  0  0  0  0  0  0  0  0  0  0  0
   -4.9969    0.3827  -20.0539 Cl  0  0  0  0  0  0  0  0  0  0  0  0
   -7.0797   -0.1818  -21.5007 C   0  0  0  0  0  0  0  0  0  0  0  0
   -7.9004   -1.1798  -22.2625 C   0  0  0  0  0  0  0  0  0  0  0  0
  -11.5067    2.2603  -23.6761 C   0  0  0  0  0  0  0  0  0  0  0  0
  -12.8569    2.2276  -23.0236 C   0  0  0  0  0  0  0  0  0  0  0  0
  -13.9208    3.1941  -23.4526 N   0  0  0  0  0  0  0  0  0  0  0  0
  -13.6343    4.1934  -24.5339 C   0  0  0  0  0  0  0  0  0  0  0  0
  -12.2840    4.2261  -25.1864 C   0  0  0  0  0  0  0  0  0  0  0  0
  -11.9976    5.2255  -26.2678 C   0  0  0  0  0  0  0  0  0  0  0  0
  -10.6473    5.2581  -26.9202 C   0  0  0  0  0  0  0  0  0  0  0  0
   -9.5835    4.2915  -26.4912 C   0  0  0  0  0  0  0  0  0  0  0  0
   -9.8700    3.2923  -25.4099 C   0  0  0  0  0  0  0  0  0  0  0  0
  -11.2202    3.2596  -24.7574 C   0  0  0  0  0  0  0  0  0  0  0  0
  -10.3627   -4.1739  -24.5479 C   0  0  0  0  0  0  0  0  0  0  0  0
  -10.1007   -4.4030  -26.0070 C   0  0  0  0  0  0  0  0  0  0  0  0
   -8.8706   -5.1437  -26.4407 N   0  0  0  0  0  0  0  0  0  0  0  0
   -7.5588   -5.1762  -25.7140 C   0  0  0  0  0  0  0  0  0  0  0  0
   -6.6137   -6.0345  -26.5014 C   0  0  0  0  0  0  0  0  0  0  0  0
   -7.3415   -6.5325  -27.7149 C   0  0  0  0  0  0  0  0  0  0  0  0
   -7.8677   -7.1402  -28.9812 C   0  0  0  0  0  0  0  0  0  0  0  0
   -6.5389   -7.7940  -29.2198 O   0  0  0  0  0  0  0  0  0  0  0  0
   -6.0126   -7.1862  -27.9535 C   0  0  0  0  0  0  0  0  0  0  0  0
   -8.7362   -5.9819  -27.6774 C   0  0  0  0  0  0  0  0  0  0  0  0
   -8.8094   -4.6133  -25.5716 H   0  0  0  0  0  0  0  0  0  0  0  0
  2  1  1  0  0  0
  2  3  1  0  0  0
  3  4  1  0  0  0
  4 19  1  0  0  0
 19 20  2  0  0  0
 20 21  1  0  0  0
 21 22  2  0  0  0
 22 23  1  0  0  0
 23 24  2  0  0  0
 24 25  1  0  0  0
 25 26  2  0  0  0
 26 27  1  0  0  0
 27 28  2  0  0  0
  4  5  1  0  0  0
  5  6  2  0  0  0
  5  7  1  0  0  0
  7  8  1  0  0  0
  8  9  1  0  0  0
  9 29  1  0  0  0
 29 30  1  0  0  0
 31 30  1  0  0  0
 31 32  1  0  0  0
 32 33  1  0  0  0
 33 34  1  0  0  0
 34 35  1  0  0  0
 35 36  1  0  0  0
 36 37  1  0  0  0
 34 38  1  0  0  0
  9 10  1  0  0  0
 10 11  2  0  0  0
 10 12  1  0  0  0
 12 13  2  0  0  0
 13 14  1  0  0  0
 14 15  2  0  0  0
 15 16  1  0  0  0
 15 17  1  0  0  0
 17 18  2  0  0  0
  7  2  1  0  0  0
 38 31  1  0  0  0
 18 12  1  0  0  0
 28 19  1  0  0  0
 18  7  1  0  0  0
 28 23  1  0  0  0
 37 34  1  0  0  0
 31 39  1  0  0  0
M  CHG 1  31   1
M  END
> <minimizedAffinity>
-8.92342

> <CNNscore>
0.3152814806

> <CNNaffinity>
6.4149312973

> <CNN_VS>
2.0225090981

> <CNNaffinity_variance>
0.1019988805

$$$$



 39 45  0  0  0  0  0  0  0  0999 V2000
  -12.0407    0.2900  -23.4289 C   0  0  0  0  0  0  0  0  0  0  0  0
  -10.7210    0.8957  -23.8054 C   0  0  0  0  0  0  0  0  0  0  0  0
  -10.8417    2.3587  -24.1133 C   0  0  0  0  0  0  0  0  0  0  0  0
   -9.4790    2.8699  -24.4763 N   0  0  0  0  0  0  0  0  0  0  0  0
   -8.5162    1.7228  -24.3927 C   0  0  0  0  0  0  0  0  0  0  0  0
   -7.0442    1.7850  -24.6744 O   0  0  0  0  0  0  0  0  0  0  0  0
   -9.2837    0.5026  -23.9780 C   0  0  0  0  0  0  0  0  0  0  0  0
   -7.8188    0.2592  -24.1895 C   0  0  0  0  0  0  0  0  0  0  0  0
   -7.2492   -1.1131  -23.9836 N   0  0  0  0  0  0  0  0  0  0  0  0
   -8.1444   -2.2419  -23.5663 C   0  0  0  0  0  0  0  0  0  0  0  0
   -7.5748   -3.6142  -23.3604 O   0  0  0  0  0  0  0  0  0  0  0  0
   -9.6094   -1.9985  -23.3548 C   0  0  0  0  0  0  0  0  0  0  0  0
  -10.5047   -3.1274  -22.9375 C   0  0  0  0  0  0  0  0  0  0  0  0
  -11.9696   -2.8839  -22.7261 C   0  0  0  0  0  0  0  0  0  0  0  0
  -12.5392   -1.5117  -22.9320 C   0  0  0  0  0  0  0  0  0  0  0  0
  -14.0042   -1.2683  -22.7205 Cl  0  0  0  0  0  0  0  0  0  0  0  0
  -11.6440   -0.3828  -23.3493 C   0  0  0  0  0  0  0  0  0  0  0  0
  -10.1791   -0.6263  -23.5607 C   0  0  0  0  0  0  0  0  0  0  0  0
   -9.1389    4.2806  -24.8563 C   0  0  0  0  0  0  0  0  0  0  0  0
   -9.7347    4.8892  -26.0909 C   0  0  0  0  0  0  0  0  0  0  0  0
   -9.3945    6.2998  -26.4709 N   0  0  0  0  0  0  0  0  0  0  0  0
   -8.4586    7.1019  -25.6160 C   0  0  0  0  0  0  0  0  0  0  0  0
   -7.8628    6.4932  -24.3813 C   0  0  0  0  0  0  0  0  0  0  0  0
   -6.9268    7.2953  -23.5264 C   0  0  0  0  0  0  0  0  0  0  0  0
   -6.3310    6.6866  -22.2917 C   0  0  0  0  0  0  0  0  0  0  0  0
   -6.6712    5.2760  -21.9119 C   0  0  0  0  0  0  0  0  0  0  0  0
   -7.6071    4.4740  -22.7667 C   0  0  0  0  0  0  0  0  0  0  0  0
   -8.2029    5.0826  -24.0014 C   0  0  0  0  0  0  0  0  0  0  0  0
   -5.7842   -1.3565  -24.1951 C   0  0  0  0  0  0  0  0  0  0  0  0
   -4.7743   -0.4306  -23.5845 C   0  0  0  0  0  0  0  0  0  0  0  0
   -4.7278   -0.2477  -22.0964 N   0  0  0  0  0  0  0  0  0  0  0  0
   -3.8802    0.7441  -21.3561 C   0  0  0  0  0  0  0  0  0  0  0  0
   -4.1493    0.5804  -19.8896 C   0  0  0  0  0  0  0  0  0  0  0  0
   -5.1632   -0.5126  -19.7235 C   0  0  0  0  0  0  0  0  0  0  0  0
   -6.1572   -1.5634  -19.3267 C   0  0  0  0  0  0  0  0  0  0  0  0
   -5.9527   -1.2117  -17.8828 O   0  0  0  0  0  0  0  0  0  0  0  0
   -4.9586   -0.1609  -18.2797 C   0  0  0  0  0  0  0  0  0  0  0  0
   -5.5207   -1.0243  -21.0874 C   0  0  0  0  0  0  0  0  0  0  0  0
   -4.1279    0.3580  -22.6564 H   0  0  0  0  0  0  0  0  0  0  0  0
  2  1  1  0  0  0
  2  3  1  0  0  0
  3  4  1  0  0  0
  4 19  1  0  0  0
 19 20  2  0  0  0
 20 21  1  0  0  0
 21 22  2  0  0  0
 22 23  1  0  0  0
 23 24  2  0  0  0
 24 25  1  0  0  0
 25 26  2  0  0  0
 26 27  1  0  0  0
 27 28  2  0  0  0
  4  5  1  0  0  0
  5  6  2  0  0  0
  5  7  1  0  0  0
  7  8  1  0  0  0
  8  9  1  0  0  0
  9 29  1  0  0  0
 29 30  1  0  0  0
 31 30  1  0  0  0
 31 32  1  0  0  0
 32 33  1  0  0  0
 33 34  1  0  0  0
 34 35  1  0  0  0
 35 36  1  0  0  0
 36 37  1  0  0  0
 34 38  1  0  0  0
  9 10  1  0  0  0
 10 11  2  0  0  0
 10 12  1  0  0  0
 12 13  2  0  0  0
 13 14  1  0  0  0
 14 15  2  0  0  0
 15 16  1  0  0  0
 15 17  1  0  0  0
 17 18  2  0  0  0
  7  2  1  0  0  0
 38 31  1  0  0  0
 18 12  1  0  0  0
 28 19  1  0  0  0
 18  7  1  0  0  0
 28 23  1  0  0  0
 37 34  1  0  0  0
 31 39  1  0  0  0
M  CHG 1  31   1
M  END
> <minimizedAffinity>
-8.60418

> <CNNscore>
0.2966313958

> <CNNaffinity>
6.4808034897

> <CNN_VS>
1.9224097729

> <CNNaffinity_variance>
0.0648659691

$$$$



 39 45  0  0  0  0  0  0  0  0999 V2000
  -12.2280   -0.3118  -23.2889 C   0  0  0  0  0  0  0  0  0  0  0  0
  -11.6079    1.0161  -23.6087 C   0  0  0  0  0  0  0  0  0  0  0  0
  -12.6408    2.0569  -23.9250 C   0  0  0  0  0  0  0  0  0  0  0  0
  -11.9271    3.3407  -24.2293 N   0  0  0  0  0  0  0  0  0  0  0  0
  -10.4532    3.0932  -24.1011 C   0  0  0  0  0  0  0  0  0  0  0  0
   -9.3672    4.1049  -24.3183 O   0  0  0  0  0  0  0  0  0  0  0  0
  -10.2559    1.6566  -23.7176 C   0  0  0  0  0  0  0  0  0  0  0  0
   -8.9789    2.4297  -23.8642 C   0  0  0  0  0  0  0  0  0  0  0  0
   -7.6611    1.7525  -23.6306 N   0  0  0  0  0  0  0  0  0  0  0  0
   -7.6202    0.3021  -23.2503 C   0  0  0  0  0  0  0  0  0  0  0  0
   -6.3023   -0.3751  -23.0166 O   0  0  0  0  0  0  0  0  0  0  0  0
   -8.8972   -0.4711  -23.1035 C   0  0  0  0  0  0  0  0  0  0  0  0
   -8.8563   -1.9215  -22.7232 C   0  0  0  0  0  0  0  0  0  0  0  0
  -10.1333   -2.6946  -22.5765 C   0  0  0  0  0  0  0  0  0  0  0  0
  -11.4511   -2.0174  -22.8102 C   0  0  0  0  0  0  0  0  0  0  0  0
  -12.7282   -2.7906  -22.6635 Cl  0  0  0  0  0  0  0  0  0  0  0  0
  -11.4920   -0.5670  -23.1905 C   0  0  0  0  0  0  0  0  0  0  0  0
  -10.2151    0.2061  -23.3372 C   0  0  0  0  0  0  0  0  0  0  0  0
  -12.5737    4.6431  -24.5971 C   0  0  0  0  0  0  0  0  0  0  0  0
  -13.3189    5.4298  -23.5600 C   0  0  0  0  0  0  0  0  0  0  0  0
  -13.9655    6.7323  -23.9279 N   0  0  0  0  0  0  0  0  0  0  0  0
  -13.8670    7.2481  -25.3330 C   0  0  0  0  0  0  0  0  0  0  0  0
  -13.1218    6.4613  -26.3702 C   0  0  0  0  0  0  0  0  0  0  0  0
  -13.0233    6.9771  -27.7753 C   0  0  0  0  0  0  0  0  0  0  0  0
  -12.2781    6.1903  -28.8124 C   0  0  0  0  0  0  0  0  0  0  0  0
  -11.6315    4.8879  -28.4445 C   0  0  0  0  0  0  0  0  0  0  0  0
  -11.7300    4.3721  -27.0394 C   0  0  0  0  0  0  0  0  0  0  0  0
  -12.4752    5.1588  -26.0023 C   0  0  0  0  0  0  0  0  0  0  0  0
   -6.3841    2.5257  -23.7773 C   0  0  0  0  0  0  0  0  0  0  0  0
   -5.9095    3.4087  -22.6614 C   0  0  0  0  0  0  0  0  0  0  0  0
   -4.8082    2.9450  -21.7548 N   0  0  0  0  0  0  0  0  0  0  0  0
   -4.8485    1.7387  -20.8641 C   0  0  0  0  0  0  0  0  0  0  0  0
   -3.5385    1.6543  -20.1385 C   0  0  0  0  0  0  0  0  0  0  0  0
   -2.6884    2.8084  -20.5807 C   0  0  0  0  0  0  0  0  0  0  0  0
   -1.6766    3.8757  -20.8756 C   0  0  0  0  0  0  0  0  0  0  0  0
   -0.7218    3.2372  -19.9108 O   0  0  0  0  0  0  0  0  0  0  0  0
   -1.7337    2.1698  -19.6159 C   0  0  0  0  0  0  0  0  0  0  0  0
   -3.4732    3.6061  -21.5796 C   0  0  0  0  0  0  0  0  0  0  0  0
   -5.6632    2.3889  -21.7668 H   0  0  0  0  0  0  0  0  0  0  0  0
  2  1  1  0  0  0
  2  3  1  0  0  0
  3  4  1  0  0  0
  4 19  1  0  0  0
 19 20  2  0  0  0
 20 21  1  0  0  0
 21 22  2  0  0  0
 22 23  1  0  0  0
 23 24  2  0  0  0
 24 25  1  0  0  0
 25 26  2  0  0  0
 26 27  1  0  0  0
 27 28  2  0  0  0
  4  5  1  0  0  0
  5  6  2  0  0  0
  5  7  1  0  0  0
  7  8  1  0  0  0
  8  9  1  0  0  0
  9 29  1  0  0  0
 29 30  1  0  0  0
 31 30  1  0  0  0
 31 32  1  0  0  0
 32 33  1  0  0  0
 33 34  1  0  0  0
 34 35  1  0  0  0
 35 36  1  0  0  0
 36 37  1  0  0  0
 34 38  1  0  0  0
  9 10  1  0  0  0
 10 11  2  0  0  0
 10 12  1  0  0  0
 12 13  2  0  0  0
 13 14  1  0  0  0
 14 15  2  0  0  0
 15 16  1  0  0  0
 15 17  1  0  0  0
 17 18  2  0  0  0
  7  2  1  0  0  0
 38 31  1  0  0  0
 18 12  1  0  0  0
 28 19  1  0  0  0
 18  7  1  0  0  0
 28 23  1  0  0  0
 37 34  1  0  0  0
 31 39  1  0  0  0
M  CHG 1  31   1
M  END
> <minimizedAffinity>
-8.38970

> <CNNscore>
0.2725487947

> <CNNaffinity>
6.3304338455

> <CNN_VS>
1.7253521681

> <CNNaffinity_variance>
0.0693543330

$$$$



 39 45  0  0  0  0  0  0  0  0999 V2000
  -11.4189   -2.6113  -22.9010 C   0  0  0  0  0  0  0  0  0  0  0  0
   -9.9550   -2.5344  -23.2195 C   0  0  0  0  0  0  0  0  0  0  0  0
   -9.2737   -3.8605  -23.0547 C   0  0  0  0  0  0  0  0  0  0  0  0
   -7.8235   -3.6818  -23.3937 N   0  0  0  0  0  0  0  0  0  0  0  0
   -7.6086   -2.2453  -23.7680 C   0  0  0  0  0  0  0  0  0  0  0  0
   -6.3051   -1.6266  -24.1780 O   0  0  0  0  0  0  0  0  0  0  0  0
   -8.9259   -1.5361  -23.6603 C   0  0  0  0  0  0  0  0  0  0  0  0
   -7.7926   -0.6551  -24.0956 C   0  0  0  0  0  0  0  0  0  0  0  0
   -8.0378    0.7973  -24.3791 N   0  0  0  0  0  0  0  0  0  0  0  0
   -9.4163    1.3688  -24.2272 C   0  0  0  0  0  0  0  0  0  0  0  0
   -9.6615    2.8212  -24.5106 O   0  0  0  0  0  0  0  0  0  0  0  0
  -10.5497    0.4878  -23.7919 C   0  0  0  0  0  0  0  0  0  0  0  0
  -11.9282    1.0593  -23.6400 C   0  0  0  0  0  0  0  0  0  0  0  0
  -13.0615    0.1783  -23.2047 C   0  0  0  0  0  0  0  0  0  0  0  0
  -12.8163   -1.2741  -22.9213 C   0  0  0  0  0  0  0  0  0  0  0  0
  -13.9497   -2.1550  -22.4860 Cl  0  0  0  0  0  0  0  0  0  0  0  0
  -11.4378   -1.8456  -23.0731 C   0  0  0  0  0  0  0  0  0  0  0  0
  -10.3045   -0.9646  -23.5084 C   0  0  0  0  0  0  0  0  0  0  0  0
   -6.7727   -4.7518  -23.3636 C   0  0  0  0  0  0  0  0  0  0  0  0
   -6.0320   -5.0401  -22.0916 C   0  0  0  0  0  0  0  0  0  0  0  0
   -4.9812   -6.1101  -22.0616 N   0  0  0  0  0  0  0  0  0  0  0  0
   -4.6711   -6.8918  -23.3037 C   0  0  0  0  0  0  0  0  0  0  0  0
   -5.4119   -6.6035  -24.5758 C   0  0  0  0  0  0  0  0  0  0  0  0
   -5.1018   -7.3853  -25.8179 C   0  0  0  0  0  0  0  0  0  0  0  0
   -5.8426   -7.0969  -27.0899 C   0  0  0  0  0  0  0  0  0  0  0  0
   -6.8933   -6.0270  -27.1199 C   0  0  0  0  0  0  0  0  0  0  0  0
   -7.2034   -5.2453  -25.8778 C   0  0  0  0  0  0  0  0  0  0  0  0
   -6.4627   -5.5335  -24.6058 C   0  0  0  0  0  0  0  0  0  0  0  0
   -6.9045    1.6782  -24.8144 C   0  0  0  0  0  0  0  0  0  0  0  0
   -6.3222    2.6779  -23.8597 C   0  0  0  0  0  0  0  0  0  0  0  0
   -5.6274    2.2101  -22.6153 N   0  0  0  0  0  0  0  0  0  0  0  0
   -6.0867    1.1044  -21.7118 C   0  0  0  0  0  0  0  0  0  0  0  0
   -5.0945    0.9768  -20.5941 C   0  0  0  0  0  0  0  0  0  0  0  0
   -4.0219    2.0037  -20.8068 C   0  0  0  0  0  0  0  0  0  0  0  0
   -2.8540    2.9447  -20.8223 C   0  0  0  0  0  0  0  0  0  0  0  0
   -2.3355    2.3220  -19.5599 O   0  0  0  0  0  0  0  0  0  0  0  0
   -3.5035    1.3809  -19.5445 C   0  0  0  0  0  0  0  0  0  0  0  0
   -4.3513    2.7659  -22.0560 C   0  0  0  0  0  0  0  0  0  0  0  0
   -6.4917    1.7324  -22.8706 H   0  0  0  0  0  0  0  0  0  0  0  0
  2  1  1  0  0  0
  2  3  1  0  0  0
  3  4  1  0  0  0
  4 19  1  0  0  0
 19 20  2  0  0  0
 20 21  1  0  0  0
 21 22  2  0  0  0
 22 23  1  0  0  0
 23 24  2  0  0  0
 24 25  1  0  0  0
 25 26  2  0  0  0
 26 27  1  0  0  0
 27 28  2  0  0  0
  4  5  1  0  0  0
  5  6  2  0  0  0
  5  7  1  0  0  0
  7  8  1  0  0  0
  8  9  1  0  0  0
  9 29  1  0  0  0
 29 30  1  0  0  0
 31 30  1  0  0  0
 31 32  1  0  0  0
 32 33  1  0  0  0
 33 34  1  0  0  0
 34 35  1  0  0  0
 35 36  1  0  0  0
 36 37  1  0  0  0
 34 38  1  0  0  0
  9 10  1  0  0  0
 10 11  2  0  0  0
 10 12  1  0  0  0
 12 13  2  0  0  0
 13 14  1  0  0  0
 14 15  2  0  0  0
 15 16  1  0  0  0
 15 17  1  0  0  0
 17 18  2  0  0  0
  7  2  1  0  0  0
 38 31  1  0  0  0
 18 12  1  0  0  0
 28 19  1  0  0  0
 18  7  1  0  0  0
 28 23  1  0  0  0
 37 34  1  0  0  0
 31 39  1  0  0  0
M  CHG 1  31   1
M  END
> <minimizedAffinity>
-8.74797

> <CNNscore>
0.2567932010

> <CNNaffinity>
6.4053831100

> <CNN_VS>
1.6448588371

> <CNNaffinity_variance>
0.3630227149

$$$$



 39 45  0  0  0  0  0  0  0  0999 V2000
  -11.0093    2.7189  -23.7783 C   0  0  0  0  0  0  0  0  0  0  0  0
   -9.6771    2.0492  -23.6140 C   0  0  0  0  0  0  0  0  0  0  0  0
   -8.5416    3.0238  -23.7184 C   0  0  0  0  0  0  0  0  0  0  0  0
   -7.2606    2.2636  -23.5420 N   0  0  0  0  0  0  0  0  0  0  0  0
   -7.6044    0.8192  -23.3285 C   0  0  0  0  0  0  0  0  0  0  0  0
   -6.6264   -0.2968  -23.1090 O   0  0  0  0  0  0  0  0  0  0  0  0
   -9.0979    0.6867  -23.3729 C   0  0  0  0  0  0  0  0  0  0  0  0
   -8.3774   -0.6075  -23.1366 C   0  0  0  0  0  0  0  0  0  0  0  0
   -9.1551   -1.8792  -22.9694 N   0  0  0  0  0  0  0  0  0  0  0  0
  -10.6533   -1.8567  -23.0386 C   0  0  0  0  0  0  0  0  0  0  0  0
  -11.4310   -3.1284  -22.8714 O   0  0  0  0  0  0  0  0  0  0  0  0
  -11.3739   -0.5625  -23.2750 C   0  0  0  0  0  0  0  0  0  0  0  0
  -12.8721   -0.5400  -23.3442 C   0  0  0  0  0  0  0  0  0  0  0  0
  -13.5926    0.7541  -23.5806 C   0  0  0  0  0  0  0  0  0  0  0  0
  -12.8149    2.0259  -23.7478 C   0  0  0  0  0  0  0  0  0  0  0  0
  -13.5355    3.3201  -23.9842 Cl  0  0  0  0  0  0  0  0  0  0  0  0
  -11.3167    2.0034  -23.6786 C   0  0  0  0  0  0  0  0  0  0  0  0
  -10.5962    0.7092  -23.4422 C   0  0  0  0  0  0  0  0  0  0  0  0
   -5.8785    2.8455  -23.5735 C   0  0  0  0  0  0  0  0  0  0  0  0
   -4.7356    2.0352  -24.1091 C   0  0  0  0  0  0  0  0  0  0  0  0
   -3.3535    2.6172  -24.1407 N   0  0  0  0  0  0  0  0  0  0  0  0
   -3.1143    4.0095  -23.6366 C   0  0  0  0  0  0  0  0  0  0  0  0
   -4.2573    4.8199  -23.1009 C   0  0  0  0  0  0  0  0  0  0  0  0
   -4.0181    6.2123  -22.5968 C   0  0  0  0  0  0  0  0  0  0  0  0
   -5.1611    7.0226  -22.0612 C   0  0  0  0  0  0  0  0  0  0  0  0
   -6.5432    6.4406  -22.0297 C   0  0  0  0  0  0  0  0  0  0  0  0
   -6.7823    5.0483  -22.5338 C   0  0  0  0  0  0  0  0  0  0  0  0
   -5.6394    4.2379  -23.0694 C   0  0  0  0  0  0  0  0  0  0  0  0
   -8.4345   -3.1734  -22.7330 C   0  0  0  0  0  0  0  0  0  0  0  0
   -7.4858   -3.7034  -23.7669 C   0  0  0  0  0  0  0  0  0  0  0  0
   -8.0136   -4.4452  -24.9590 N   0  0  0  0  0  0  0  0  0  0  0  0
   -9.4347   -4.4452  -25.4391 C   0  0  0  0  0  0  0  0  0  0  0  0
   -9.5124   -5.3173  -26.6571 C   0  0  0  0  0  0  0  0  0  0  0  0
   -8.1394   -5.8563  -26.9297 C   0  0  0  0  0  0  0  0  0  0  0  0
   -6.8659   -6.5047  -27.3854 C   0  0  0  0  0  0  0  0  0  0  0  0
   -7.6020   -7.1531  -28.5202 O   0  0  0  0  0  0  0  0  0  0  0  0
   -8.8756   -6.5047  -28.0644 C   0  0  0  0  0  0  0  0  0  0  0  0
   -7.2131   -5.3173  -25.8802 C   0  0  0  0  0  0  0  0  0  0  0  0
   -8.6826   -3.8896  -24.4258 H   0  0  0  0  0  0  0  0  0  0  0  0
  2  1  1  0  0  0
  2  3  1  0  0  0
  3  4  1  0  0  0
  4 19  1  0  0  0
 19 20  2  0  0  0
 20 21  1  0  0  0
 21 22  2  0  0  0
 22 23  1  0  0  0
 23 24  2  0  0  0
 24 25  1  0  0  0
 25 26  2  0  0  0
 26 27  1  0  0  0
 27 28  2  0  0  0
  4  5  1  0  0  0
  5  6  2  0  0  0
  5  7  1  0  0  0
  7  8  1  0  0  0
  8  9  1  0  0  0
  9 29  1  0  0  0
 29 30  1  0  0  0
 31 30  1  0  0  0
 31 32  1  0  0  0
 32 33  1  0  0  0
 33 34  1  0  0  0
 34 35  1  0  0  0
 35 36  1  0  0  0
 36 37  1  0  0  0
 34 38  1  0  0  0
  9 10  1  0  0  0
 10 11  2  0  0  0
 10 12  1  0  0  0
 12 13  2  0  0  0
 13 14  1  0  0  0
 14 15  2  0  0  0
 15 16  1  0  0  0
 15 17  1  0  0  0
 17 18  2  0  0  0
  7  2  1  0  0  0
 38 31  1  0  0  0
 18 12  1  0  0  0
 28 19  1  0  0  0
 18  7  1  0  0  0
 28 23  1  0  0  0
 37 34  1  0  0  0
 31 39  1  0  0  0
M  CHG 1  31   1
M  END
> <minimizedAffinity>
-8.08216

> <CNNscore>
0.2502968609

> <CNNaffinity>
6.3475923538

> <CNN_VS>
1.5887824297

> <CNNaffinity_variance>
0.1066449881

$$$$



 39 45  0  0  0  0  0  0  0  0999 V2000
  -11.5046   -1.7196  -23.2059 C   0  0  0  0  0  0  0  0  0  0  0  0
  -10.0047   -1.7295  -23.2260 C   0  0  0  0  0  0  0  0  0  0  0  0
   -9.4504   -3.1186  -23.1115 C   0  0  0  0  0  0  0  0  0  0  0  0
   -7.9536   -3.0242  -23.1408 N   0  0  0  0  0  0  0  0  0  0  0  0
   -7.5830   -1.5768  -23.2734 C   0  0  0  0  0  0  0  0  0  0  0  0
   -6.1893   -1.0263  -23.3415 O   0  0  0  0  0  0  0  0  0  0  0  0
   -8.8506   -0.7766  -23.3261 C   0  0  0  0  0  0  0  0  0  0  0  0
   -7.6027    0.0507  -23.4165 C   0  0  0  0  0  0  0  0  0  0  0  0
   -7.6993    1.5420  -23.5464 N   0  0  0  0  0  0  0  0  0  0  0  0
   -9.0437    2.2059  -23.5860 C   0  0  0  0  0  0  0  0  0  0  0  0
   -9.1403    3.6971  -23.7159 O   0  0  0  0  0  0  0  0  0  0  0  0
  -10.2917    1.3785  -23.4956 C   0  0  0  0  0  0  0  0  0  0  0  0
  -11.6362    2.0424  -23.5352 C   0  0  0  0  0  0  0  0  0  0  0  0
  -12.8841    1.2151  -23.4449 C   0  0  0  0  0  0  0  0  0  0  0  0
  -12.7875   -0.2761  -23.3149 C   0  0  0  0  0  0  0  0  0  0  0  0
  -14.0355   -1.1035  -23.2246 Cl  0  0  0  0  0  0  0  0  0  0  0  0
  -11.4431   -0.9400  -23.2753 C   0  0  0  0  0  0  0  0  0  0  0  0
  -10.1952   -0.1127  -23.3657 C   0  0  0  0  0  0  0  0  0  0  0  0
   -6.9957   -4.1752  -23.0529 C   0  0  0  0  0  0  0  0  0  0  0  0
   -6.2515   -4.4357  -21.7770 C   0  0  0  0  0  0  0  0  0  0  0  0
   -5.2936   -5.5867  -21.6891 N   0  0  0  0  0  0  0  0  0  0  0  0
   -5.0800   -6.4770  -22.8772 C   0  0  0  0  0  0  0  0  0  0  0  0
   -5.8243   -6.2165  -24.1532 C   0  0  0  0  0  0  0  0  0  0  0  0
   -5.6107   -7.1069  -25.3414 C   0  0  0  0  0  0  0  0  0  0  0  0
   -6.3550   -6.8462  -26.6173 C   0  0  0  0  0  0  0  0  0  0  0  0
   -7.3129   -5.6953  -26.7051 C   0  0  0  0  0  0  0  0  0  0  0  0
   -7.5265   -4.8050  -25.5170 C   0  0  0  0  0  0  0  0  0  0  0  0
   -6.7822   -5.0655  -24.2411 C   0  0  0  0  0  0  0  0  0  0  0  0
   -6.4513    2.3693  -23.6367 C   0  0  0  0  0  0  0  0  0  0  0  0
   -6.1108    3.3352  -22.5408 C   0  0  0  0  0  0  0  0  0  0  0  0
   -4.7068    3.4123  -22.0185 N   0  0  0  0  0  0  0  0  0  0  0  0
   -3.6695    4.4173  -22.4234 C   0  0  0  0  0  0  0  0  0  0  0  0
   -2.4152    4.1241  -21.6548 C   0  0  0  0  0  0  0  0  0  0  0  0
   -2.6773    2.9379  -20.7749 C   0  0  0  0  0  0  0  0  0  0  0  0
   -2.7165    1.7784  -19.8242 C   0  0  0  0  0  0  0  0  0  0  0  0
   -1.2887    2.0401  -19.4460 O   0  0  0  0  0  0  0  0  0  0  0  0
   -1.2495    3.1997  -20.3967 C   0  0  0  0  0  0  0  0  0  0  0  0
   -4.0936    2.4980  -20.9997 C   0  0  0  0  0  0  0  0  0  0  0  0
   -4.9814    4.1072  -22.7129 H   0  0  0  0  0  0  0  0  0  0  0  0
  2  1  1  0  0  0
  2  3  1  0  0  0
  3  4  1  0  0  0
  4 19  1  0  0  0
 19 20  2  0  0  0
 20 21  1  0  0  0
 21 22  2  0  0  0
 22 23  1  0  0  0
 23 24  2  0  0  0
 24 25  1  0  0  0
 25 26  2  0  0  0
 26 27  1  0  0  0
 27 28  2  0  0  0
  4  5  1  0  0  0
  5  6  2  0  0  0
  5  7  1  0  0  0
  7  8  1  0  0  0
  8  9  1  0  0  0
  9 29  1  0  0  0
 29 30  1  0  0  0
 31 30  1  0  0  0
 31 32  1  0  0  0
 32 33  1  0  0  0
 33 34  1  0  0  0
 34 35  1  0  0  0
 35 36  1  0  0  0
 36 37  1  0  0  0
 34 38  1  0  0  0
  9 10  1  0  0  0
 10 11  2  0  0  0
 10 12  1  0  0  0
 12 13  2  0  0  0
 13 14  1  0  0  0
 14 15  2  0  0  0
 15 16  1  0  0  0
 15 17  1  0  0  0
 17 18  2  0  0  0
  7  2  1  0  0  0
 38 31  1  0  0  0
 18 12  1  0  0  0
 28 19  1  0  0  0
 18  7  1  0  0  0
 28 23  1  0  0  0
 37 34  1  0  0  0
 31 39  1  0  0  0
M  CHG 1  31   1
M  END
> <minimizedAffinity>
-8.66771

> <CNNscore>
0.2484868020

> <CNNaffinity>
6.3773889542

> <CNN_VS>
1.5846970081

> <CNNaffinity_variance>
0.1132520661

$$$$



 39 45  0  0  0  0  0  0  0  0999 V2000
  -11.5269   -1.8611  -23.4198 C   0  0  0  0  0  0  0  0  0  0  0  0
  -10.0434   -2.0495  -23.5380 C   0  0  0  0  0  0  0  0  0  0  0  0
   -9.6616   -3.4999  -23.5637 C   0  0  0  0  0  0  0  0  0  0  0  0
   -8.1687   -3.5841  -23.6830 N   0  0  0  0  0  0  0  0  0  0  0  0
   -7.6280   -2.1858  -23.7310 C   0  0  0  0  0  0  0  0  0  0  0  0
   -6.1823   -1.8031  -23.8480 O   0  0  0  0  0  0  0  0  0  0  0  0
   -8.7866   -1.2374  -23.6414 C   0  0  0  0  0  0  0  0  0  0  0  0
   -7.4520   -0.5615  -23.7505 C   0  0  0  0  0  0  0  0  0  0  0  0
   -7.3684    0.9361  -23.7622 N   0  0  0  0  0  0  0  0  0  0  0  0
   -8.6195    1.7579  -23.6647 C   0  0  0  0  0  0  0  0  0  0  0  0
   -8.5359    3.2555  -23.6764 O   0  0  0  0  0  0  0  0  0  0  0  0
   -9.9542    1.0820  -23.5556 C   0  0  0  0  0  0  0  0  0  0  0  0
  -11.2052    1.9038  -23.4582 C   0  0  0  0  0  0  0  0  0  0  0  0
  -12.5398    1.2279  -23.3490 C   0  0  0  0  0  0  0  0  0  0  0  0
  -12.6234   -0.2697  -23.3373 C   0  0  0  0  0  0  0  0  0  0  0  0
  -13.9581   -0.9456  -23.2282 Cl  0  0  0  0  0  0  0  0  0  0  0  0
  -11.3723   -1.0915  -23.4348 C   0  0  0  0  0  0  0  0  0  0  0  0
  -10.0377   -0.4156  -23.5439 C   0  0  0  0  0  0  0  0  0  0  0  0
   -7.3588   -4.8452  -23.7436 C   0  0  0  0  0  0  0  0  0  0  0  0
   -6.9083   -5.5089  -22.4762 C   0  0  0  0  0  0  0  0  0  0  0  0
   -6.0984   -6.7700  -22.5369 N   0  0  0  0  0  0  0  0  0  0  0  0
   -5.7390   -7.3673  -23.8650 C   0  0  0  0  0  0  0  0  0  0  0  0
   -6.1895   -6.7036  -25.1325 C   0  0  0  0  0  0  0  0  0  0  0  0
   -5.8301   -7.3010  -26.4607 C   0  0  0  0  0  0  0  0  0  0  0  0
   -6.2806   -6.6372  -27.7281 C   0  0  0  0  0  0  0  0  0  0  0  0
   -7.0905   -5.3762  -27.6674 C   0  0  0  0  0  0  0  0  0  0  0  0
   -7.4499   -4.7788  -26.3393 C   0  0  0  0  0  0  0  0  0  0  0  0
   -6.9994   -5.4425  -25.0719 C   0  0  0  0  0  0  0  0  0  0  0  0
   -6.0337    1.6120  -23.8713 C   0  0  0  0  0  0  0  0  0  0  0  0
   -4.8289    1.0028  -23.2177 C   0  0  0  0  0  0  0  0  0  0  0  0
   -4.8022    0.8040  -21.7312 N   0  0  0  0  0  0  0  0  0  0  0  0
   -4.1313    1.7010  -20.7336 C   0  0  0  0  0  0  0  0  0  0  0  0
   -4.3562    1.1246  -19.3671 C   0  0  0  0  0  0  0  0  0  0  0  0
   -5.1662   -0.1287  -19.5202 C   0  0  0  0  0  0  0  0  0  0  0  0
   -5.9619   -1.3975  -19.4389 C   0  0  0  0  0  0  0  0  0  0  0  0
   -5.8089   -1.3979  -17.9467 O   0  0  0  0  0  0  0  0  0  0  0  0
   -5.0131   -0.1290  -18.0280 C   0  0  0  0  0  0  0  0  0  0  0  0
   -5.4418   -0.3268  -20.9813 C   0  0  0  0  0  0  0  0  0  0  0  0
   -4.3197    1.6247  -22.0973 H   0  0  0  0  0  0  0  0  0  0  0  0
  2  1  1  0  0  0
  2  3  1  0  0  0
  3  4  1  0  0  0
  4 19  1  0  0  0
 19 20  2  0  0  0
 20 21  1  0  0  0
 21 22  2  0  0  0
 22 23  1  0  0  0
 23 24  2  0  0  0
 24 25  1  0  0  0
 25 26  2  0  0  0
 26 27  1  0  0  0
 27 28  2  0  0  0
  4  5  1  0  0  0
  5  6  2  0  0  0
  5  7  1  0  0  0
  7  8  1  0  0  0
  8  9  1  0  0  0
  9 29  1  0  0  0
 29 30  1  0  0  0
 31 30  1  0  0  0
 31 32  1  0  0  0
 32 33  1  0  0  0
 33 34  1  0  0  0
 34 35  1  0  0  0
 35 36  1  0  0  0
 36 37  1  0  0  0
 34 38  1  0  0  0
  9 10  1  0  0  0
 10 11  2  0  0  0
 10 12  1  0  0  0
 12 13  2  0  0  0
 13 14  1  0  0  0
 14 15  2  0  0  0
 15 16  1  0  0  0
 15 17  1  0  0  0
 17 18  2  0  0  0
  7  2  1  0  0  0
 38 31  1  0  0  0
 18 12  1  0  0  0
 28 19  1  0  0  0
 18  7  1  0  0  0
 28 23  1  0  0  0
 37 34  1  0  0  0
 31 39  1  0  0  0
M  CHG 1  31   1
M  END
> <minimizedAffinity>
-9.39132

> <CNNscore>
0.2170919925

> <CNNaffinity>
6.4700255394

> <CNN_VS>
1.4045907259

> <CNNaffinity_variance>
0.4569264054

$$$$



 39 45  0  0  0  0  0  0  0  0999 V2000
   -6.2719    2.6684  -22.3497 C   0  0  0  0  0  0  0  0  0  0  0  0
   -7.5795    1.9988  -22.6530 C   0  0  0  0  0  0  0  0  0  0  0  0
   -8.6530    2.9900  -22.9922 C   0  0  0  0  0  0  0  0  0  0  0  0
   -9.9135    2.2286  -23.2778 N   0  0  0  0  0  0  0  0  0  0  0  0
   -9.6189    0.7668  -23.1151 C   0  0  0  0  0  0  0  0  0  0  0  0
  -10.5954   -0.3558  -23.3053 O   0  0  0  0  0  0  0  0  0  0  0  0
   -8.1764    0.6248  -22.7290 C   0  0  0  0  0  0  0  0  0  0  0  0
   -8.9083   -0.6794  -22.8445 C   0  0  0  0  0  0  0  0  0  0  0  0
   -8.1890   -1.9690  -22.5807 N   0  0  0  0  0  0  0  0  0  0  0  0
   -6.7379   -1.9544  -22.2015 C   0  0  0  0  0  0  0  0  0  0  0  0
   -6.0186   -3.2440  -21.9377 O   0  0  0  0  0  0  0  0  0  0  0  0
   -6.0059   -0.6502  -22.0860 C   0  0  0  0  0  0  0  0  0  0  0  0
   -4.5547   -0.6356  -21.7068 C   0  0  0  0  0  0  0  0  0  0  0  0
   -3.8228    0.6686  -21.5913 C   0  0  0  0  0  0  0  0  0  0  0  0
   -4.5421    1.9582  -21.8551 C   0  0  0  0  0  0  0  0  0  0  0  0
   -3.8101    3.2624  -21.7397 Cl  0  0  0  0  0  0  0  0  0  0  0  0
   -5.9933    1.9436  -22.2344 C   0  0  0  0  0  0  0  0  0  0  0  0
   -6.7252    0.6394  -22.3498 C   0  0  0  0  0  0  0  0  0  0  0  0
  -11.2362    2.8243  -23.6590 C   0  0  0  0  0  0  0  0  0  0  0  0
  -12.4302    2.6291  -22.7724 C   0  0  0  0  0  0  0  0  0  0  0  0
  -13.7530    3.2248  -23.1537 N   0  0  0  0  0  0  0  0  0  0  0  0
  -13.8817    4.0158  -24.4217 C   0  0  0  0  0  0  0  0  0  0  0  0
  -12.6876    4.2111  -25.3083 C   0  0  0  0  0  0  0  0  0  0  0  0
  -12.8164    5.0021  -26.5763 C   0  0  0  0  0  0  0  0  0  0  0  0
  -11.6223    5.1973  -27.4629 C   0  0  0  0  0  0  0  0  0  0  0  0
  -10.2996    4.6016  -27.0816 C   0  0  0  0  0  0  0  0  0  0  0  0
  -10.1709    3.8106  -25.8137 C   0  0  0  0  0  0  0  0  0  0  0  0
  -11.3649    3.6153  -24.9270 C   0  0  0  0  0  0  0  0  0  0  0  0
   -8.9210   -3.2733  -22.6961 C   0  0  0  0  0  0  0  0  0  0  0  0
   -8.7397   -4.1298  -23.9141 C   0  0  0  0  0  0  0  0  0  0  0  0
   -7.7059   -5.2166  -23.9194 N   0  0  0  0  0  0  0  0  0  0  0  0
   -7.4228   -6.1697  -22.7963 C   0  0  0  0  0  0  0  0  0  0  0  0
   -6.3156   -7.0833  -23.2315 C   0  0  0  0  0  0  0  0  0  0  0  0
   -5.9144   -6.6948  -24.6237 C   0  0  0  0  0  0  0  0  0  0  0  0
   -5.3564   -6.4812  -25.9995 C   0  0  0  0  0  0  0  0  0  0  0  0
   -4.3980   -7.6154  -25.7870 O   0  0  0  0  0  0  0  0  0  0  0  0
   -4.9561   -7.8291  -24.4112 C   0  0  0  0  0  0  0  0  0  0  0  0
   -6.7736   -5.5411  -25.0488 C   0  0  0  0  0  0  0  0  0  0  0  0
   -8.2681   -5.1165  -23.0743 H   0  0  0  0  0  0  0  0  0  0  0  0
  2  1  1  0  0  0
  2  3  1  0  0  0
  3  4  1  0  0  0
  4 19  1  0  0  0
 19 20  2  0  0  0
 20 21  1  0  0  0
 21 22  2  0  0  0
 22 23  1  0  0  0
 23 24  2  0  0  0
 24 25  1  0  0  0
 25 26  2  0  0  0
 26 27  1  0  0  0
 27 28  2  0  0  0
  4  5  1  0  0  0
  5  6  2  0  0  0
  5  7  1  0  0  0
  7  8  1  0  0  0
  8  9  1  0  0  0
  9 29  1  0  0  0
 29 30  1  0  0  0
 31 30  1  0  0  0
 31 32  1  0  0  0
 32 33  1  0  0  0
 33 34  1  0  0  0
 34 35  1  0  0  0
 35 36  1  0  0  0
 36 37  1  0  0  0
 34 38  1  0  0  0
  9 10  1  0  0  0
 10 11  2  0  0  0
 10 12  1  0  0  0
 12 13  2  0  0  0
 13 14  1  0  0  0
 14 15  2  0  0  0
 15 16  1  0  0  0
 15 17  1  0  0  0
 17 18  2  0  0  0
  7  2  1  0  0  0
 38 31  1  0  0  0
 18 12  1  0  0  0
 28 19  1  0  0  0
 18  7  1  0  0  0
 28 23  1  0  0  0
 37 34  1  0  0  0
 31 39  1  0  0  0
M  CHG 1  31   1
M  END
> <minimizedAffinity>
-8.18224

> <CNNscore>
0.1994051635

> <CNNaffinity>
6.3968138695

> <CNN_VS>
1.2755577564

> <CNNaffinity_variance>
0.0921270996

$$$$
