


 36 40  0  0  0  0  0  0  0  0999 V2000
  -11.2319    3.7739  -23.9893 N   0  0  0  0  0  0  0  0  0  0  0  0
   -9.9040    3.0774  -23.9508 C   0  0  0  0  0  0  0  0  0  0  0  0
   -9.8400    1.5972  -23.7165 C   0  0  0  0  0  0  0  0  0  0  0  0
   -9.6199    0.1304  -23.4929 C   0  0  0  0  0  0  0  0  0  0  0  0
  -10.2547   -0.8864  -23.2944 O   0  0  0  0  0  0  0  0  0  0  0  0
   -8.1429   -0.1282  -23.5331 N   0  0  0  0  0  0  0  0  0  0  0  0
   -7.4501    1.1789  -23.7815 C   0  0  0  0  0  0  0  0  0  0  0  0
   -8.4990    2.2452  -23.8948 C   0  0  0  0  0  0  0  0  0  0  0  0
  -11.1039    0.8135  -23.5206 C   0  0  0  0  0  0  0  0  0  0  0  0
  -11.0399   -0.6667  -23.2862 C   0  0  0  0  0  0  0  0  0  0  0  0
  -12.3038   -1.4503  -23.0904 C   0  0  0  0  0  0  0  0  0  0  0  0
  -12.2398   -2.9305  -22.8560 Cl  0  0  0  0  0  0  0  0  0  0  0  0
  -13.6317   -0.7538  -23.1288 C   0  0  0  0  0  0  0  0  0  0  0  0
  -13.6957    0.7264  -23.3632 C   0  0  0  0  0  0  0  0  0  0  0  0
  -12.4318    1.5100  -23.5591 C   0  0  0  0  0  0  0  0  0  0  0  0
  -12.4958    2.9903  -23.7934 C   0  0  0  0  0  0  0  0  0  0  0  0
  -13.8237    3.6868  -23.8319 O   0  0  0  0  0  0  0  0  0  0  0  0
   -7.4758   -1.4599  -23.3560 C   0  0  0  0  0  0  0  0  0  0  0  0
   -6.8794   -1.8296  -22.0302 C   0  0  0  0  0  0  0  0  0  0  0  0
   -6.2123   -3.1614  -21.8531 N   0  0  0  0  0  0  0  0  0  0  0  0
   -6.1416   -4.1235  -23.0017 C   0  0  0  0  0  0  0  0  0  0  0  0
   -6.7380   -3.7538  -24.3275 C   0  0  0  0  0  0  0  0  0  0  0  0
   -6.6673   -4.7159  -25.4762 C   0  0  0  0  0  0  0  0  0  0  0  0
   -7.2637   -4.3461  -26.8019 C   0  0  0  0  0  0  0  0  0  0  0  0
   -7.9308   -3.0143  -26.9790 C   0  0  0  0  0  0  0  0  0  0  0  0
   -8.0015   -2.0523  -25.8304 C   0  0  0  0  0  0  0  0  0  0  0  0
   -7.4051   -2.4220  -24.5046 C   0  0  0  0  0  0  0  0  0  0  0  0
  -11.2959    5.2542  -24.2237 C   0  0  0  0  0  0  0  0  0  0  0  0
  -13.7951    6.5177  -27.0357 C   0  0  0  0  0  0  0  0  0  0  0  0
  -13.2819    5.9866  -25.7301 N   0  0  0  0  0  0  0  0  0  0  0  0
  -11.8091    5.7853  -25.5292 C   0  0  0  0  0  0  0  0  0  0  0  0
  -10.8495    6.1151  -26.6340 O   0  0  0  0  0  0  0  0  0  0  0  0
  -13.9117    5.7701  -25.0050 H   0  0  0  0  0  0  0  0  0  0  0  0
   -8.2504    3.7035  -24.1430 C   0  0  0  0  0  0  0  0  0  0  0  0
   -7.1009    4.1323  -25.0058 O   0  0  0  0  0  0  0  0  0  0  0  0
   -7.0806    3.7719  -26.4618 C   0  0  0  0  0  0  0  0  0  0  0  0
 29 30  1  0  0  0
 30 31  1  0  0  0
 31 32  2  0  0  0
 31 28  1  0  0  0
 28  1  1  0  0  0
  1  2  1  0  0  0
  3  2  1  0  0  0
  3  4  1  0  0  0
  4  5  2  0  0  0
  4  6  1  0  0  0
  6 18  1  0  0  0
 18 19  2  0  0  0
 19 20  1  0  0  0
 20 21  2  0  0  0
 21 22  1  0  0  0
 22 23  2  0  0  0
 23 24  1  0  0  0
 24 25  2  0  0  0
 25 26  1  0  0  0
 26 27  2  0  0  0
  6  7  1  0  0  0
  7  8  1  0  0  0
  8 34  1  0  0  0
 34 35  1  0  0  0
 35 36  1  0  0  0
  3  9  1  0  0  0
  9 10  2  0  0  0
 10 11  1  0  0  0
 11 12  1  0  0  0
 11 13  2  0  0  0
 13 14  1  0  0  0
 14 15  2  0  0  0
 15 16  1  0  0  0
 16 17  2  0  0  0
 16  1  1  0  0  0
  8  3  1  0  0  0
 15  9  1  0  0  0
 27 18  1  0  0  0
 27 22  1  0  0  0
 30 33  1  0  0  0
M  END
> <minimizedAffinity>
-6.69529

> <CNNscore>
0.4820874631

> <CNNaffinity>
6.4874253273

> <CNN_VS>
3.1275064945

> <CNNaffinity_variance>
0.3293757439

$$$$



 36 40  0  0  0  0  0  0  0  0999 V2000
   -9.2495    2.6980  -24.7140 N   0  0  0  0  0  0  0  0  0  0  0  0
   -8.3231    1.5219  -24.8071 C   0  0  0  0  0  0  0  0  0  0  0  0
   -8.8100    0.1525  -24.4362 C   0  0  0  0  0  0  0  0  0  0  0  0
   -9.1530   -1.2688  -24.1009 C   0  0  0  0  0  0  0  0  0  0  0  0
  -10.0918   -1.9315  -23.7062 O   0  0  0  0  0  0  0  0  0  0  0  0
   -7.9329   -2.1085  -24.3384 N   0  0  0  0  0  0  0  0  0  0  0  0
   -6.8359   -1.2062  -24.8204 C   0  0  0  0  0  0  0  0  0  0  0  0
   -7.3779    0.1911  -24.8808 C   0  0  0  0  0  0  0  0  0  0  0  0
  -10.2233   -0.0409  -23.9722 C   0  0  0  0  0  0  0  0  0  0  0  0
  -10.7102   -1.4104  -23.6013 C   0  0  0  0  0  0  0  0  0  0  0  0
  -12.1234   -1.6037  -23.1373 C   0  0  0  0  0  0  0  0  0  0  0  0
  -12.6103   -2.9732  -22.7664 Cl  0  0  0  0  0  0  0  0  0  0  0  0
  -13.0498   -0.4276  -23.0443 C   0  0  0  0  0  0  0  0  0  0  0  0
  -12.5629    0.9418  -23.4152 C   0  0  0  0  0  0  0  0  0  0  0  0
  -11.1497    1.1351  -23.8791 C   0  0  0  0  0  0  0  0  0  0  0  0
  -10.6627    2.5046  -24.2500 C   0  0  0  0  0  0  0  0  0  0  0  0
  -11.5891    3.6807  -24.1570 O   0  0  0  0  0  0  0  0  0  0  0  0
   -7.8283   -3.5903  -24.1303 C   0  0  0  0  0  0  0  0  0  0  0  0
   -7.1791   -4.1296  -22.8903 C   0  0  0  0  0  0  0  0  0  0  0  0
   -7.0746   -5.6114  -22.6822 N   0  0  0  0  0  0  0  0  0  0  0  0
   -7.6192   -6.5539  -23.7143 C   0  0  0  0  0  0  0  0  0  0  0  0
   -8.2683   -6.0146  -24.9543 C   0  0  0  0  0  0  0  0  0  0  0  0
   -8.8130   -6.9572  -25.9864 C   0  0  0  0  0  0  0  0  0  0  0  0
   -9.4621   -6.4178  -27.2264 C   0  0  0  0  0  0  0  0  0  0  0  0
   -9.5667   -4.9360  -27.4344 C   0  0  0  0  0  0  0  0  0  0  0  0
   -9.0221   -3.9935  -26.4024 C   0  0  0  0  0  0  0  0  0  0  0  0
   -8.3729   -4.5328  -25.1623 C   0  0  0  0  0  0  0  0  0  0  0  0
   -8.7626    4.0674  -25.0849 C   0  0  0  0  0  0  0  0  0  0  0  0
   -7.1932    5.8274  -21.8928 C   0  0  0  0  0  0  0  0  0  0  0  0
   -8.1663    5.1112  -22.7817 N   0  0  0  0  0  0  0  0  0  0  0  0
   -7.7894    4.7836  -24.1961 C   0  0  0  0  0  0  0  0  0  0  0  0
   -6.4393    5.1723  -24.7217 O   0  0  0  0  0  0  0  0  0  0  0  0
   -9.0525    4.8562  -22.4367 H   0  0  0  0  0  0  0  0  0  0  0  0
   -6.6208    1.4127  -25.3105 C   0  0  0  0  0  0  0  0  0  0  0  0
   -5.3142    1.7535  -24.6575 O   0  0  0  0  0  0  0  0  0  0  0  0
   -5.0848    1.4117  -23.2151 C   0  0  0  0  0  0  0  0  0  0  0  0
 29 30  1  0  0  0
 30 31  1  0  0  0
 31 32  2  0  0  0
 31 28  1  0  0  0
 28  1  1  0  0  0
  1  2  1  0  0  0
  3  2  1  0  0  0
  3  4  1  0  0  0
  4  5  2  0  0  0
  4  6  1  0  0  0
  6 18  1  0  0  0
 18 19  2  0  0  0
 19 20  1  0  0  0
 20 21  2  0  0  0
 21 22  1  0  0  0
 22 23  2  0  0  0
 23 24  1  0  0  0
 24 25  2  0  0  0
 25 26  1  0  0  0
 26 27  2  0  0  0
  6  7  1  0  0  0
  7  8  1  0  0  0
  8 34  1  0  0  0
 34 35  1  0  0  0
 35 36  1  0  0  0
  3  9  1  0  0  0
  9 10  2  0  0  0
 10 11  1  0  0  0
 11 12  1  0  0  0
 11 13  2  0  0  0
 13 14  1  0  0  0
 14 15  2  0  0  0
 15 16  1  0  0  0
 16 17  2  0  0  0
 16  1  1  0  0  0
  8  3  1  0  0  0
 15  9  1  0  0  0
 27 18  1  0  0  0
 27 22  1  0  0  0
 30 33  1  0  0  0
M  END
> <minimizedAffinity>
-6.95569

> <CNNscore>
0.3839975893

> <CNNaffinity>
6.2203974724

> <CNN_VS>
2.3886175156

> <CNNaffinity_variance>
0.1385305226

$$$$



 36 40  0  0  0  0  0  0  0  0999 V2000
   -8.2730   -2.9203  -22.8443 N   0  0  0  0  0  0  0  0  0  0  0  0
   -9.5443   -2.1693  -23.1087 C   0  0  0  0  0  0  0  0  0  0  0  0
   -9.5622   -0.6718  -23.0236 C   0  0  0  0  0  0  0  0  0  0  0  0
   -9.7325    0.8177  -22.9760 C   0  0  0  0  0  0  0  0  0  0  0  0
   -9.0843    1.8222  -22.7584 O   0  0  0  0  0  0  0  0  0  0  0  0
  -11.1619    1.1317  -23.3049 N   0  0  0  0  0  0  0  0  0  0  0  0
  -11.8751   -0.1638  -23.5558 C   0  0  0  0  0  0  0  0  0  0  0  0
  -10.8865   -1.2784  -23.3819 C   0  0  0  0  0  0  0  0  0  0  0  0
   -8.3089    0.0746  -22.6741 C   0  0  0  0  0  0  0  0  0  0  0  0
   -8.3269    1.5721  -22.5891 C   0  0  0  0  0  0  0  0  0  0  0  0
   -7.0736    2.3185  -22.2397 C   0  0  0  0  0  0  0  0  0  0  0  0
   -7.0915    3.8160  -22.1546 Cl  0  0  0  0  0  0  0  0  0  0  0  0
   -5.8023    1.5674  -21.9753 C   0  0  0  0  0  0  0  0  0  0  0  0
   -5.7844    0.0700  -22.0604 C   0  0  0  0  0  0  0  0  0  0  0  0
   -7.0377   -0.6764  -22.4098 C   0  0  0  0  0  0  0  0  0  0  0  0
   -7.0198   -2.1740  -22.4949 C   0  0  0  0  0  0  0  0  0  0  0  0
   -5.7485   -2.9250  -22.2306 O   0  0  0  0  0  0  0  0  0  0  0  0
  -11.7711    2.5008  -23.3713 C   0  0  0  0  0  0  0  0  0  0  0  0
  -12.8208    2.9036  -22.3785 C   0  0  0  0  0  0  0  0  0  0  0  0
  -13.4300    4.2727  -22.4449 N   0  0  0  0  0  0  0  0  0  0  0  0
  -12.9894    5.2390  -23.5041 C   0  0  0  0  0  0  0  0  0  0  0  0
  -11.9396    4.8362  -24.4970 C   0  0  0  0  0  0  0  0  0  0  0  0
  -11.4990    5.8027  -25.5563 C   0  0  0  0  0  0  0  0  0  0  0  0
  -10.4493    5.3998  -26.5491 C   0  0  0  0  0  0  0  0  0  0  0  0
   -9.8401    4.0307  -26.4827 C   0  0  0  0  0  0  0  0  0  0  0  0
  -10.2807    3.0644  -25.4234 C   0  0  0  0  0  0  0  0  0  0  0  0
  -11.3305    3.4671  -24.4306 C   0  0  0  0  0  0  0  0  0  0  0  0
   -8.2551   -4.4179  -22.9294 C   0  0  0  0  0  0  0  0  0  0  0  0
   -6.6955   -6.7329  -25.7505 C   0  0  0  0  0  0  0  0  0  0  0  0
   -6.9091   -6.0594  -24.4273 N   0  0  0  0  0  0  0  0  0  0  0  0
   -8.0415   -5.0914  -24.2526 C   0  0  0  0  0  0  0  0  0  0  0  0
   -8.9604   -4.7968  -25.4011 O   0  0  0  0  0  0  0  0  0  0  0  0
   -6.3061   -6.2527  -23.6735 H   0  0  0  0  0  0  0  0  0  0  0  0
  -11.1720   -2.7426  -23.5388 C   0  0  0  0  0  0  0  0  0  0  0  0
  -12.3859   -3.3433  -22.8944 O   0  0  0  0  0  0  0  0  0  0  0  0
  -13.2717   -2.4974  -22.0285 C   0  0  0  0  0  0  0  0  0  0  0  0
 29 30  1  0  0  0
 30 31  1  0  0  0
 31 32  2  0  0  0
 31 28  1  0  0  0
 28  1  1  0  0  0
  1  2  1  0  0  0
  3  2  1  0  0  0
  3  4  1  0  0  0
  4  5  2  0  0  0
  4  6  1  0  0  0
  6 18  1  0  0  0
 18 19  2  0  0  0
 19 20  1  0  0  0
 20 21  2  0  0  0
 21 22  1  0  0  0
 22 23  2  0  0  0
 23 24  1  0  0  0
 24 25  2  0  0  0
 25 26  1  0  0  0
 26 27  2  0  0  0
  6  7  1  0  0  0
  7  8  1  0  0  0
  8 34  1  0  0  0
 34 35  1  0  0  0
 35 36  1  0  0  0
  3  9  1  0  0  0
  9 10  2  0  0  0
 10 11  1  0  0  0
 11 12  1  0  0  0
 11 13  2  0  0  0
 13 14  1  0  0  0
 14 15  2  0  0  0
 15 16  1  0  0  0
 16 17  2  0  0  0
 16  1  1  0  0  0
  8  3  1  0  0  0
 15  9  1  0  0  0
 27 18  1  0  0  0
 27 22  1  0  0  0
 30 33  1  0  0  0
M  END
> <minimizedAffinity>
-7.64504

> <CNNscore>
0.3327064216

> <CNNaffinity>
6.3279800415

> <CNN_VS>
2.1053595543

> <CNNaffinity_variance>
0.0616564751

$$$$



 36 40  0  0  0  0  0  0  0  0999 V2000
  -11.5630    3.9426  -24.0452 N   0  0  0  0  0  0  0  0  0  0  0  0
  -10.1811    3.3681  -23.9435 C   0  0  0  0  0  0  0  0  0  0  0  0
   -9.9954    1.9032  -23.6803 C   0  0  0  0  0  0  0  0  0  0  0  0
   -9.6551    0.4653  -23.4221 C   0  0  0  0  0  0  0  0  0  0  0  0
  -10.2045   -0.6012  -23.2297 O   0  0  0  0  0  0  0  0  0  0  0  0
   -8.1605    0.3392  -23.4011 N   0  0  0  0  0  0  0  0  0  0  0  0
   -7.5771    1.6991  -23.6464 C   0  0  0  0  0  0  0  0  0  0  0  0
   -8.7112    2.6657  -23.8189 C   0  0  0  0  0  0  0  0  0  0  0  0
  -11.1916    1.0126  -23.5187 C   0  0  0  0  0  0  0  0  0  0  0  0
  -11.0059   -0.4524  -23.2555 C   0  0  0  0  0  0  0  0  0  0  0  0
  -12.2020   -1.3429  -23.0940 C   0  0  0  0  0  0  0  0  0  0  0  0
  -12.0163   -2.8079  -22.8307 Cl  0  0  0  0  0  0  0  0  0  0  0  0
  -13.5839   -0.7684  -23.1957 C   0  0  0  0  0  0  0  0  0  0  0  0
  -13.7697    0.6965  -23.4589 C   0  0  0  0  0  0  0  0  0  0  0  0
  -12.5735    1.5870  -23.6204 C   0  0  0  0  0  0  0  0  0  0  0  0
  -12.7592    3.0521  -23.8837 C   0  0  0  0  0  0  0  0  0  0  0  0
  -14.1411    3.6266  -23.9854 O   0  0  0  0  0  0  0  0  0  0  0  0
   -7.3855   -0.9250  -23.1747 C   0  0  0  0  0  0  0  0  0  0  0  0
   -7.1494   -1.8739  -24.3121 C   0  0  0  0  0  0  0  0  0  0  0  0
   -6.3743   -3.1380  -24.0857 N   0  0  0  0  0  0  0  0  0  0  0  0
   -5.8354   -3.4532  -22.7218 C   0  0  0  0  0  0  0  0  0  0  0  0
   -6.0715   -2.5042  -21.5844 C   0  0  0  0  0  0  0  0  0  0  0  0
   -5.5325   -2.8195  -20.2204 C   0  0  0  0  0  0  0  0  0  0  0  0
   -5.7687   -1.8705  -19.0831 C   0  0  0  0  0  0  0  0  0  0  0  0
   -6.5437   -0.6063  -19.3095 C   0  0  0  0  0  0  0  0  0  0  0  0
   -7.0826   -0.2912  -20.6734 C   0  0  0  0  0  0  0  0  0  0  0  0
   -6.8465   -1.2401  -21.8108 C   0  0  0  0  0  0  0  0  0  0  0  0
  -11.7487    5.4077  -24.3084 C   0  0  0  0  0  0  0  0  0  0  0  0
  -13.9883    6.4502  -27.4144 C   0  0  0  0  0  0  0  0  0  0  0  0
  -13.5937    5.9781  -26.0464 N   0  0  0  0  0  0  0  0  0  0  0  0
  -12.1434    5.8797  -25.6764 C   0  0  0  0  0  0  0  0  0  0  0  0
  -11.0877    6.2534  -26.6744 O   0  0  0  0  0  0  0  0  0  0  0  0
  -14.2865    5.7329  -25.3914 H   0  0  0  0  0  0  0  0  0  0  0  0
   -8.5833    4.1367  -24.0835 C   0  0  0  0  0  0  0  0  0  0  0  0
   -7.8643    5.0154  -23.1034 O   0  0  0  0  0  0  0  0  0  0  0  0
   -6.8744    4.4191  -22.1471 C   0  0  0  0  0  0  0  0  0  0  0  0
 29 30  1  0  0  0
 30 31  1  0  0  0
 31 32  2  0  0  0
 31 28  1  0  0  0
 28  1  1  0  0  0
  1  2  1  0  0  0
  3  2  1  0  0  0
  3  4  1  0  0  0
  4  5  2  0  0  0
  4  6  1  0  0  0
  6 18  1  0  0  0
 18 19  2  0  0  0
 19 20  1  0  0  0
 20 21  2  0  0  0
 21 22  1  0  0  0
 22 23  2  0  0  0
 23 24  1  0  0  0
 24 25  2  0  0  0
 25 26  1  0  0  0
 26 27  2  0  0  0
  6  7  1  0  0  0
  7  8  1  0  0  0
  8 34  1  0  0  0
 34 35  1  0  0  0
 35 36  1  0  0  0
  3  9  1  0  0  0
  9 10  2  0  0  0
 10 11  1  0  0  0
 11 12  1  0  0  0
 11 13  2  0  0  0
 13 14  1  0  0  0
 14 15  2  0  0  0
 15 16  1  0  0  0
 16 17  2  0  0  0
 16  1  1  0  0  0
  8  3  1  0  0  0
 15  9  1  0  0  0
 27 18  1  0  0  0
 27 22  1  0  0  0
 30 33  1  0  0  0
M  END
> <minimizedAffinity>
-7.85929

> <CNNscore>
0.3270872533

> <CNNaffinity>
6.2721881866

> <CNN_VS>
2.0515527725

> <CNNaffinity_variance>
0.0700464696

$$$$



 36 40  0  0  0  0  0  0  0  0999 V2000
  -12.1184    2.2727  -23.8664 N   0  0  0  0  0  0  0  0  0  0  0  0
  -12.0172    0.7818  -23.7364 C   0  0  0  0  0  0  0  0  0  0  0  0
  -10.6741    0.1151  -23.7737 C   0  0  0  0  0  0  0  0  0  0  0  0
   -9.4072   -0.6877  -23.7929 C   0  0  0  0  0  0  0  0  0  0  0  0
   -8.2068   -0.5301  -23.8958 O   0  0  0  0  0  0  0  0  0  0  0  0
   -9.7722   -2.1338  -23.6328 N   0  0  0  0  0  0  0  0  0  0  0  0
  -11.2647   -2.2248  -23.5146 C   0  0  0  0  0  0  0  0  0  0  0  0
  -11.8221   -0.8349  -23.6017 C   0  0  0  0  0  0  0  0  0  0  0  0
   -9.4320    0.9393  -23.9411 C   0  0  0  0  0  0  0  0  0  0  0  0
   -8.0889    0.2726  -23.9784 C   0  0  0  0  0  0  0  0  0  0  0  0
   -6.8469    1.0968  -24.1458 C   0  0  0  0  0  0  0  0  0  0  0  0
   -5.5036    0.4301  -24.1831 Cl  0  0  0  0  0  0  0  0  0  0  0  0
   -6.9480    2.5877  -24.2758 C   0  0  0  0  0  0  0  0  0  0  0  0
   -8.2912    3.2544  -24.2384 C   0  0  0  0  0  0  0  0  0  0  0  0
   -9.5332    2.4302  -24.0711 C   0  0  0  0  0  0  0  0  0  0  0  0
  -10.8764    3.0969  -24.0337 C   0  0  0  0  0  0  0  0  0  0  0  0
  -10.9775    4.5878  -24.1637 O   0  0  0  0  0  0  0  0  0  0  0  0
   -8.8130   -3.2865  -23.5971 C   0  0  0  0  0  0  0  0  0  0  0  0
   -7.6519   -3.2670  -22.6476 C   0  0  0  0  0  0  0  0  0  0  0  0
   -6.6928   -4.4197  -22.6119 N   0  0  0  0  0  0  0  0  0  0  0  0
   -6.8947   -5.5919  -23.5256 C   0  0  0  0  0  0  0  0  0  0  0  0
   -8.0558   -5.6115  -24.4751 C   0  0  0  0  0  0  0  0  0  0  0  0
   -8.2577   -6.7838  -25.3889 C   0  0  0  0  0  0  0  0  0  0  0  0
   -9.4188   -6.8033  -26.3384 C   0  0  0  0  0  0  0  0  0  0  0  0
  -10.3780   -5.6506  -26.3741 C   0  0  0  0  0  0  0  0  0  0  0  0
  -10.1760   -4.4783  -25.4603 C   0  0  0  0  0  0  0  0  0  0  0  0
   -9.0149   -4.4588  -24.5108 C   0  0  0  0  0  0  0  0  0  0  0  0
  -13.4616    2.9394  -23.8290 C   0  0  0  0  0  0  0  0  0  0  0  0
  -13.7263    6.7324  -24.9661 C   0  0  0  0  0  0  0  0  0  0  0  0
  -13.6329    5.2367  -25.0303 N   0  0  0  0  0  0  0  0  0  0  0  0
  -13.5550    4.4351  -23.7649 C   0  0  0  0  0  0  0  0  0  0  0  0
  -13.5704    5.1292  -22.4351 O   0  0  0  0  0  0  0  0  0  0  0  0
  -13.6228    4.7811  -25.9030 H   0  0  0  0  0  0  0  0  0  0  0  0
  -13.2729   -0.4607  -23.5295 C   0  0  0  0  0  0  0  0  0  0  0  0
  -14.2577   -1.3951  -22.8915 O   0  0  0  0  0  0  0  0  0  0  0  0
  -13.7790   -2.4625  -21.9526 C   0  0  0  0  0  0  0  0  0  0  0  0
 29 30  1  0  0  0
 30 31  1  0  0  0
 31 32  2  0  0  0
 31 28  1  0  0  0
 28  1  1  0  0  0
  1  2  1  0  0  0
  3  2  1  0  0  0
  3  4  1  0  0  0
  4  5  2  0  0  0
  4  6  1  0  0  0
  6 18  1  0  0  0
 18 19  2  0  0  0
 19 20  1  0  0  0
 20 21  2  0  0  0
 21 22  1  0  0  0
 22 23  2  0  0  0
 23 24  1  0  0  0
 24 25  2  0  0  0
 25 26  1  0  0  0
 26 27  2  0  0  0
  6  7  1  0  0  0
  7  8  1  0  0  0
  8 34  1  0  0  0
 34 35  1  0  0  0
 35 36  1  0  0  0
  3  9  1  0  0  0
  9 10  2  0  0  0
 10 11  1  0  0  0
 11 12  1  0  0  0
 11 13  2  0  0  0
 13 14  1  0  0  0
 14 15  2  0  0  0
 15 16  1  0  0  0
 16 17  2  0  0  0
 16  1  1  0  0  0
  8  3  1  0  0  0
 15  9  1  0  0  0
 27 18  1  0  0  0
 27 22  1  0  0  0
 30 33  1  0  0  0
M  END
> <minimizedAffinity>
-8.52581

> <CNNscore>
0.2855904102

> <CNNaffinity>
6.4334616661

> <CNN_VS>
1.8373349905

> <CNNaffinity_variance>
0.1013182402

$$$$



 36 40  0  0  0  0  0  0  0  0999 V2000
   -6.3162   -0.0785  -22.4181 N   0  0  0  0  0  0  0  0  0  0  0  0
   -6.6448    1.1786  -23.1675 C   0  0  0  0  0  0  0  0  0  0  0  0
   -8.0388    1.4089  -23.6712 C   0  0  0  0  0  0  0  0  0  0  0  0
   -9.3807    1.7758  -24.2321 C   0  0  0  0  0  0  0  0  0  0  0  0
  -10.5096    1.3331  -24.3101 O   0  0  0  0  0  0  0  0  0  0  0  0
   -9.2545    3.1135  -24.8988 N   0  0  0  0  0  0  0  0  0  0  0  0
   -7.8345    3.5734  -24.7500 C   0  0  0  0  0  0  0  0  0  0  0  0
   -7.0832    2.5199  -23.9912 C   0  0  0  0  0  0  0  0  0  0  0  0
   -9.1043    0.3820  -23.4254 C   0  0  0  0  0  0  0  0  0  0  0  0
  -10.4983    0.6123  -23.9290 C   0  0  0  0  0  0  0  0  0  0  0  0
  -11.5637   -0.4146  -23.6832 C   0  0  0  0  0  0  0  0  0  0  0  0
  -12.9578   -0.1843  -24.1869 Cl  0  0  0  0  0  0  0  0  0  0  0  0
  -11.2351   -1.6717  -22.9338 C   0  0  0  0  0  0  0  0  0  0  0  0
   -9.8411   -1.9020  -22.4302 C   0  0  0  0  0  0  0  0  0  0  0  0
   -8.7757   -0.8751  -22.6760 C   0  0  0  0  0  0  0  0  0  0  0  0
   -7.3816   -1.1054  -22.1723 C   0  0  0  0  0  0  0  0  0  0  0  0
   -7.0530   -2.3625  -21.4229 O   0  0  0  0  0  0  0  0  0  0  0  0
  -10.3550    3.8602  -25.5926 C   0  0  0  0  0  0  0  0  0  0  0  0
  -10.3290    4.0196  -27.0839 C   0  0  0  0  0  0  0  0  0  0  0  0
  -11.4295    4.7662  -27.7777 N   0  0  0  0  0  0  0  0  0  0  0  0
  -12.5560    5.3536  -26.9802 C   0  0  0  0  0  0  0  0  0  0  0  0
  -12.5820    5.1942  -25.4889 C   0  0  0  0  0  0  0  0  0  0  0  0
  -13.7086    5.7816  -24.6913 C   0  0  0  0  0  0  0  0  0  0  0  0
  -13.7344    5.6221  -23.2001 C   0  0  0  0  0  0  0  0  0  0  0  0
  -12.6339    4.8755  -22.5063 C   0  0  0  0  0  0  0  0  0  0  0  0
  -11.5075    4.2881  -23.3038 C   0  0  0  0  0  0  0  0  0  0  0  0
  -11.4815    4.4475  -24.7951 C   0  0  0  0  0  0  0  0  0  0  0  0
   -4.9221   -0.3087  -21.9145 C   0  0  0  0  0  0  0  0  0  0  0  0
   -5.1612    0.0661  -17.9709 C   0  0  0  0  0  0  0  0  0  0  0  0
   -5.5154   -0.2863  -19.3852 N   0  0  0  0  0  0  0  0  0  0  0  0
   -4.5679    0.0437  -20.5002 C   0  0  0  0  0  0  0  0  0  0  0  0
   -3.2660    0.7261  -20.2008 O   0  0  0  0  0  0  0  0  0  0  0  0
   -6.3698   -0.7342  -19.5817 H   0  0  0  0  0  0  0  0  0  0  0  0
   -5.6312    2.5689  -23.6181 C   0  0  0  0  0  0  0  0  0  0  0  0
   -5.1484    3.5725  -22.6134 O   0  0  0  0  0  0  0  0  0  0  0  0
   -5.5614    5.0098  -22.7309 C   0  0  0  0  0  0  0  0  0  0  0  0
 29 30  1  0  0  0
 30 31  1  0  0  0
 31 32  2  0  0  0
 31 28  1  0  0  0
 28  1  1  0  0  0
  1  2  1  0  0  0
  3  2  1  0  0  0
  3  4  1  0  0  0
  4  5  2  0  0  0
  4  6  1  0  0  0
  6 18  1  0  0  0
 18 19  2  0  0  0
 19 20  1  0  0  0
 20 21  2  0  0  0
 21 22  1  0  0  0
 22 23  2  0  0  0
 23 24  1  0  0  0
 24 25  2  0  0  0
 25 26  1  0  0  0
 26 27  2  0  0  0
  6  7  1  0  0  0
  7  8  1  0  0  0
  8 34  1  0  0  0
 34 35  1  0  0  0
 35 36  1  0  0  0
  3  9  1  0  0  0
  9 10  2  0  0  0
 10 11  1  0  0  0
 11 12  1  0  0  0
 11 13  2  0  0  0
 13 14  1  0  0  0
 14 15  2  0  0  0
 15 16  1  0  0  0
 16 17  2  0  0  0
 16  1  1  0  0  0
  8  3  1  0  0  0
 15  9  1  0  0  0
 27 18  1  0  0  0
 27 22  1  0  0  0
 30 33  1  0  0  0
M  END
> <minimizedAffinity>
-7.63434

> <CNNscore>
0.2528767288

> <CNNaffinity>
5.9110965729

> <CNN_VS>
1.4947787523

> <CNNaffinity_variance>
0.1595008522

$$$$



 36 40  0  0  0  0  0  0  0  0999 V2000
   -6.6903   -0.3130  -22.4052 N   0  0  0  0  0  0  0  0  0  0  0  0
   -7.0497    1.0822  -22.8228 C   0  0  0  0  0  0  0  0  0  0  0  0
   -8.4585    1.4057  -23.2235 C   0  0  0  0  0  0  0  0  0  0  0  0
   -9.8179    1.8764  -23.6483 C   0  0  0  0  0  0  0  0  0  0  0  0
  -10.9445    1.4486  -23.8038 O   0  0  0  0  0  0  0  0  0  0  0  0
   -9.7212    3.3367  -23.9770 N   0  0  0  0  0  0  0  0  0  0  0  0
   -8.3019    3.7686  -23.7553 C   0  0  0  0  0  0  0  0  0  0  0  0
   -7.5215    2.5752  -23.2897 C   0  0  0  0  0  0  0  0  0  0  0  0
   -9.5080    0.3341  -23.2066 C   0  0  0  0  0  0  0  0  0  0  0  0
  -10.9168    0.6576  -23.6074 C   0  0  0  0  0  0  0  0  0  0  0  0
  -11.9662   -0.4140  -23.5905 C   0  0  0  0  0  0  0  0  0  0  0  0
  -13.3750   -0.0905  -23.9912 Cl  0  0  0  0  0  0  0  0  0  0  0  0
  -11.6068   -1.8092  -23.1729 C   0  0  0  0  0  0  0  0  0  0  0  0
  -10.1980   -2.1327  -22.7721 C   0  0  0  0  0  0  0  0  0  0  0  0
   -9.1486   -1.0611  -22.7890 C   0  0  0  0  0  0  0  0  0  0  0  0
   -7.7397   -1.3846  -22.3883 C   0  0  0  0  0  0  0  0  0  0  0  0
   -7.3804   -2.7797  -21.9707 O   0  0  0  0  0  0  0  0  0  0  0  0
  -10.8461    4.2115  -24.4451 C   0  0  0  0  0  0  0  0  0  0  0  0
  -11.7577    4.8600  -23.4458 C   0  0  0  0  0  0  0  0  0  0  0  0
  -12.8827    5.7348  -23.9139 N   0  0  0  0  0  0  0  0  0  0  0  0
  -13.0961    5.9611  -25.3813 C   0  0  0  0  0  0  0  0  0  0  0  0
  -12.1845    5.3126  -26.3806 C   0  0  0  0  0  0  0  0  0  0  0  0
  -12.3979    5.5390  -27.8480 C   0  0  0  0  0  0  0  0  0  0  0  0
  -11.4863    4.8904  -28.8472 C   0  0  0  0  0  0  0  0  0  0  0  0
  -10.3613    4.0157  -28.3791 C   0  0  0  0  0  0  0  0  0  0  0  0
  -10.1479    3.7893  -26.9117 C   0  0  0  0  0  0  0  0  0  0  0  0
  -11.0595    4.4378  -25.9124 C   0  0  0  0  0  0  0  0  0  0  0  0
   -5.2815   -0.6365  -22.0044 C   0  0  0  0  0  0  0  0  0  0  0  0
   -5.0620   -0.0334  -18.0880 C   0  0  0  0  0  0  0  0  0  0  0  0
   -5.5780   -0.4640  -19.4291 N   0  0  0  0  0  0  0  0  0  0  0  0
   -4.7656   -0.2059  -20.6633 C   0  0  0  0  0  0  0  0  0  0  0  0
   -3.4372    0.4826  -20.5565 O   0  0  0  0  0  0  0  0  0  0  0  0
   -6.4498   -0.9159  -19.4992 H   0  0  0  0  0  0  0  0  0  0  0  0
   -6.0607    2.5549  -22.9499 C   0  0  0  0  0  0  0  0  0  0  0  0
   -5.4679    3.6561  -22.1217 O   0  0  0  0  0  0  0  0  0  0  0  0
   -5.9420    5.0678  -22.3009 C   0  0  0  0  0  0  0  0  0  0  0  0
 29 30  1  0  0  0
 30 31  1  0  0  0
 31 32  2  0  0  0
 31 28  1  0  0  0
 28  1  1  0  0  0
  1  2  1  0  0  0
  3  2  1  0  0  0
  3  4  1  0  0  0
  4  5  2  0  0  0
  4  6  1  0  0  0
  6 18  1  0  0  0
 18 19  2  0  0  0
 19 20  1  0  0  0
 20 21  2  0  0  0
 21 22  1  0  0  0
 22 23  2  0  0  0
 23 24  1  0  0  0
 24 25  2  0  0  0
 25 26  1  0  0  0
 26 27  2  0  0  0
  6  7  1  0  0  0
  7  8  1  0  0  0
  8 34  1  0  0  0
 34 35  1  0  0  0
 35 36  1  0  0  0
  3  9  1  0  0  0
  9 10  2  0  0  0
 10 11  1  0  0  0
 11 12  1  0  0  0
 11 13  2  0  0  0
 13 14  1  0  0  0
 14 15  2  0  0  0
 15 16  1  0  0  0
 16 17  2  0  0  0
 16  1  1  0  0  0
  8  3  1  0  0  0
 15  9  1  0  0  0
 27 18  1  0  0  0
 27 22  1  0  0  0
 30 33  1  0  0  0
M  END
> <minimizedAffinity>
-7.68278

> <CNNscore>
0.2474178821

> <CNNaffinity>
6.0108861923

> <CNN_VS>
1.4872007370

> <CNNaffinity_variance>
0.1351283342

$$$$



 36 40  0  0  0  0  0  0  0  0999 V2000
   -7.3216   -3.4921  -22.4266 N   0  0  0  0  0  0  0  0  0  0  0  0
   -8.3020   -2.6186  -23.1516 C   0  0  0  0  0  0  0  0  0  0  0  0
   -8.1206   -1.1296  -23.1546 C   0  0  0  0  0  0  0  0  0  0  0  0
   -8.0694    0.3668  -23.2450 C   0  0  0  0  0  0  0  0  0  0  0  0
   -7.3873    1.2992  -22.8686 O   0  0  0  0  0  0  0  0  0  0  0  0
   -9.2415    0.8222  -24.0627 N   0  0  0  0  0  0  0  0  0  0  0  0
  -10.0172   -0.3928  -24.4778 C   0  0  0  0  0  0  0  0  0  0  0  0
   -9.3244   -1.5990  -23.9166 C   0  0  0  0  0  0  0  0  0  0  0  0
   -6.9586   -0.5142  -22.4327 C   0  0  0  0  0  0  0  0  0  0  0  0
   -6.7772    0.9748  -22.4357 C   0  0  0  0  0  0  0  0  0  0  0  0
   -5.6153    1.5902  -21.7138 C   0  0  0  0  0  0  0  0  0  0  0  0
   -5.4337    3.0792  -21.7168 Cl  0  0  0  0  0  0  0  0  0  0  0  0
   -4.6348    0.7166  -20.9888 C   0  0  0  0  0  0  0  0  0  0  0  0
   -4.8163   -0.7724  -20.9858 C   0  0  0  0  0  0  0  0  0  0  0  0
   -5.9782   -1.3877  -21.7077 C   0  0  0  0  0  0  0  0  0  0  0  0
   -6.1597   -2.8768  -21.7047 C   0  0  0  0  0  0  0  0  0  0  0  0
   -5.1792   -3.7503  -20.9797 O   0  0  0  0  0  0  0  0  0  0  0  0
   -9.5788    2.2431  -24.4053 C   0  0  0  0  0  0  0  0  0  0  0  0
   -8.7168    3.0080  -25.3654 C   0  0  0  0  0  0  0  0  0  0  0  0
   -9.0541    4.4289  -25.7079 N   0  0  0  0  0  0  0  0  0  0  0  0
  -10.2534    5.0848  -25.0903 C   0  0  0  0  0  0  0  0  0  0  0  0
  -11.1154    4.3199  -24.1302 C   0  0  0  0  0  0  0  0  0  0  0  0
  -12.3148    4.9759  -23.5127 C   0  0  0  0  0  0  0  0  0  0  0  0
  -13.1767    4.2108  -22.5526 C   0  0  0  0  0  0  0  0  0  0  0  0
  -12.8395    2.7899  -22.2100 C   0  0  0  0  0  0  0  0  0  0  0  0
  -11.6402    2.1340  -22.8276 C   0  0  0  0  0  0  0  0  0  0  0  0
  -10.7781    2.8990  -23.7877 C   0  0  0  0  0  0  0  0  0  0  0  0
   -7.5031   -4.9812  -22.4236 C   0  0  0  0  0  0  0  0  0  0  0  0
   -4.0934   -6.6770  -23.5407 C   0  0  0  0  0  0  0  0  0  0  0  0
   -5.2921   -5.7753  -23.5330 N   0  0  0  0  0  0  0  0  0  0  0  0
   -6.3044   -5.8828  -22.4313 C   0  0  0  0  0  0  0  0  0  0  0  0
   -6.1180   -6.8920  -21.3373 O   0  0  0  0  0  0  0  0  0  0  0  0
   -5.4145   -5.1129  -24.2510 H   0  0  0  0  0  0  0  0  0  0  0  0
   -9.7591   -3.0245  -24.0873 C   0  0  0  0  0  0  0  0  0  0  0  0
  -11.2012   -3.3955  -23.9073 O   0  0  0  0  0  0  0  0  0  0  0  0
  -11.9940   -2.8004  -22.7816 C   0  0  0  0  0  0  0  0  0  0  0  0
 29 30  1  0  0  0
 30 31  1  0  0  0
 31 32  2  0  0  0
 31 28  1  0  0  0
 28  1  1  0  0  0
  1  2  1  0  0  0
  3  2  1  0  0  0
  3  4  1  0  0  0
  4  5  2  0  0  0
  4  6  1  0  0  0
  6 18  1  0  0  0
 18 19  2  0  0  0
 19 20  1  0  0  0
 20 21  2  0  0  0
 21 22  1  0  0  0
 22 23  2  0  0  0
 23 24  1  0  0  0
 24 25  2  0  0  0
 25 26  1  0  0  0
 26 27  2  0  0  0
  6  7  1  0  0  0
  7  8  1  0  0  0
  8 34  1  0  0  0
 34 35  1  0  0  0
 35 36  1  0  0  0
  3  9  1  0  0  0
  9 10  2  0  0  0
 10 11  1  0  0  0
 11 12  1  0  0  0
 11 13  2  0  0  0
 13 14  1  0  0  0
 14 15  2  0  0  0
 15 16  1  0  0  0
 16 17  2  0  0  0
 16  1  1  0  0  0
  8  3  1  0  0  0
 15  9  1  0  0  0
 27 18  1  0  0  0
 27 22  1  0  0  0
 30 33  1  0  0  0
M  END
> <minimizedAffinity>
-7.43345

> <CNNscore>
0.2304752618

> <CNNaffinity>
6.1608266830

> <CNN_VS>
1.4199181795

> <CNNaffinity_variance>
0.2759347260

$$$$



 36 40  0  0  0  0  0  0  0  0999 V2000
   -7.6420   -2.7943  -22.3964 N   0  0  0  0  0  0  0  0  0  0  0  0
   -8.9645   -2.1722  -22.7340 C   0  0  0  0  0  0  0  0  0  0  0  0
   -9.1086   -0.6792  -22.7504 C   0  0  0  0  0  0  0  0  0  0  0  0
   -9.4029    0.7905  -22.8065 C   0  0  0  0  0  0  0  0  0  0  0  0
   -8.8457    1.8582  -22.6453 O   0  0  0  0  0  0  0  0  0  0  0  0
  -10.8451    0.9605  -23.1820 N   0  0  0  0  0  0  0  0  0  0  0  0
  -11.4422   -0.4042  -23.3580 C   0  0  0  0  0  0  0  0  0  0  0  0
  -10.3690   -1.4176  -23.0912 C   0  0  0  0  0  0  0  0  0  0  0  0
   -7.9302    0.1916  -22.4292 C   0  0  0  0  0  0  0  0  0  0  0  0
   -8.0743    1.6846  -22.4457 C   0  0  0  0  0  0  0  0  0  0  0  0
   -6.8960    2.5553  -22.1245 C   0  0  0  0  0  0  0  0  0  0  0  0
   -7.0401    4.0484  -22.1409 Cl  0  0  0  0  0  0  0  0  0  0  0  0
   -5.5735    1.9332  -21.7869 C   0  0  0  0  0  0  0  0  0  0  0  0
   -5.4294    0.4402  -21.7704 C   0  0  0  0  0  0  0  0  0  0  0  0
   -6.6077   -0.4305  -22.0916 C   0  0  0  0  0  0  0  0  0  0  0  0
   -6.4636   -1.9236  -22.0752 C   0  0  0  0  0  0  0  0  0  0  0  0
   -5.1412   -2.5457  -21.7376 O   0  0  0  0  0  0  0  0  0  0  0  0
  -11.5640    2.2661  -23.3517 C   0  0  0  0  0  0  0  0  0  0  0  0
  -12.6679    2.6426  -22.4085 C   0  0  0  0  0  0  0  0  0  0  0  0
  -13.3868    3.9481  -22.5782 N   0  0  0  0  0  0  0  0  0  0  0  0
  -13.0018    4.8771  -23.6911 C   0  0  0  0  0  0  0  0  0  0  0  0
  -11.8979    4.5006  -24.6344 C   0  0  0  0  0  0  0  0  0  0  0  0
  -11.5128    5.4297  -25.7473 C   0  0  0  0  0  0  0  0  0  0  0  0
  -10.4089    5.0531  -26.6905 C   0  0  0  0  0  0  0  0  0  0  0  0
   -9.6900    3.7476  -26.5208 C   0  0  0  0  0  0  0  0  0  0  0  0
  -10.0750    2.8186  -25.4079 C   0  0  0  0  0  0  0  0  0  0  0  0
  -11.1790    3.1951  -24.4646 C   0  0  0  0  0  0  0  0  0  0  0  0
   -7.4979   -4.2874  -22.3799 C   0  0  0  0  0  0  0  0  0  0  0  0
   -5.1619   -5.2410  -25.4433 C   0  0  0  0  0  0  0  0  0  0  0  0
   -5.6985   -4.5260  -24.2387 N   0  0  0  0  0  0  0  0  0  0  0  0
   -6.9614   -5.0023  -23.5845 C   0  0  0  0  0  0  0  0  0  0  0  0
   -7.6879   -6.1938  -24.1349 O   0  0  0  0  0  0  0  0  0  0  0  0
   -5.2217   -3.7440  -23.8775 H   0  0  0  0  0  0  0  0  0  0  0  0
  -10.5283   -2.9078  -23.1542 C   0  0  0  0  0  0  0  0  0  0  0  0
  -11.2082   -3.5403  -24.3321 O   0  0  0  0  0  0  0  0  0  0  0  0
  -10.3988   -4.2709  -25.3622 C   0  0  0  0  0  0  0  0  0  0  0  0
 29 30  1  0  0  0
 30 31  1  0  0  0
 31 32  2  0  0  0
 31 28  1  0  0  0
 28  1  1  0  0  0
  1  2  1  0  0  0
  3  2  1  0  0  0
  3  4  1  0  0  0
  4  5  2  0  0  0
  4  6  1  0  0  0
  6 18  1  0  0  0
 18 19  2  0  0  0
 19 20  1  0  0  0
 20 21  2  0  0  0
 21 22  1  0  0  0
 22 23  2  0  0  0
 23 24  1  0  0  0
 24 25  2  0  0  0
 25 26  1  0  0  0
 26 27  2  0  0  0
  6  7  1  0  0  0
  7  8  1  0  0  0
  8 34  1  0  0  0
 34 35  1  0  0  0
 35 36  1  0  0  0
  3  9  1  0  0  0
  9 10  2  0  0  0
 10 11  1  0  0  0
 11 12  1  0  0  0
 11 13  2  0  0  0
 13 14  1  0  0  0
 14 15  2  0  0  0
 15 16  1  0  0  0
 16 17  2  0  0  0
 16  1  1  0  0  0
  8  3  1  0  0  0
 15  9  1  0  0  0
 27 18  1  0  0  0
 27 22  1  0  0  0
 30 33  1  0  0  0
M  END
> <minimizedAffinity>
-7.26343

> <CNNscore>
0.2264431417

> <CNNaffinity>
6.0154390335

> <CNN_VS>
1.3621549606

> <CNNaffinity_variance>
0.0817516223

$$$$
