


 37 41  0  0  0  0  0  0  0  0999 V2000
    6.6412   -1.5772   23.6981 N   0  0  0  0  0  0  0  0  0  0  0  0
    7.7848   -1.2246   22.7938 C   0  0  0  0  0  0  0  0  0  0  0  0
    7.8123    0.1070   22.1038 O   0  0  0  0  0  0  0  0  0  0  0  0
    3.6453    1.4774   20.3900 C   0  0  0  0  0  0  0  0  0  0  0  0
    4.7614    0.4985   20.1756 O   0  0  0  0  0  0  0  0  0  0  0  0
    3.1557    1.7644   21.7785 N   0  0  0  0  0  0  0  0  0  0  0  0
    2.0396    2.7433   21.9928 C   0  0  0  0  0  0  0  0  0  0  0  0
    1.5501    3.0303   23.3813 C   0  0  0  0  0  0  0  0  0  0  0  0
    2.1766    2.3385   24.5555 C   0  0  0  0  0  0  0  0  0  0  0  0
    3.2927    1.3596   24.3411 C   0  0  0  0  0  0  0  0  0  0  0  0
    3.9194    0.6676   25.5153 C   0  0  0  0  0  0  0  0  0  0  0  0
    5.0355   -0.3112   25.3010 C   0  0  0  0  0  0  0  0  0  0  0  0
    5.5251   -0.5983   23.9125 C   0  0  0  0  0  0  0  0  0  0  0  0
    4.8985    0.0936   22.7383 C   0  0  0  0  0  0  0  0  0  0  0  0
    3.7823    1.0725   22.9526 C   0  0  0  0  0  0  0  0  0  0  0  0
    1.5537    2.4909   19.2290 C   0  0  0  0  0  0  0  0  0  0  0  0
    3.0187    2.1693   19.2158 C   0  0  0  0  0  0  0  0  0  0  0  0
    6.6138   -2.9088   24.3882 C   0  0  0  0  0  0  0  0  0  0  0  0
    6.4746   -4.1674   23.5842 C   0  0  0  0  0  0  0  0  0  0  0  0
    5.6261   -4.1774   22.3473 C   0  0  0  0  0  0  0  0  0  0  0  0
    5.4870   -5.4360   21.5433 C   0  0  0  0  0  0  0  0  0  0  0  0
    6.1964   -6.6848   21.9762 C   0  0  0  0  0  0  0  0  0  0  0  0
    7.0450   -6.6748   23.2131 C   0  0  0  0  0  0  0  0  0  0  0  0
    7.7544   -7.9235   23.6460 Cl  0  0  0  0  0  0  0  0  0  0  0  0
    7.1841   -5.4161   24.0171 C   0  0  0  0  0  0  0  0  0  0  0  0
    8.9009   -2.2035   22.5796 C   0  0  0  0  0  0  0  0  0  0  0  0
   10.2889   -1.8713   23.0413 C   0  0  0  0  0  0  0  0  0  0  0  0
   11.1314   -0.9113   22.2548 C   0  0  0  0  0  0  0  0  0  0  0  0
   12.5193   -0.5792   22.7166 N   0  0  0  0  0  0  0  0  0  0  0  0
   13.0648   -1.2070   23.9649 C   0  0  0  0  0  0  0  0  0  0  0  0
   12.2223   -2.1671   24.7514 C   0  0  0  0  0  0  0  0  0  0  0  0
   12.7678   -2.7949   25.9997 C   0  0  0  0  0  0  0  0  0  0  0  0
   14.1557   -2.4628   26.4615 F   0  0  0  0  0  0  0  0  0  0  0  0
   11.9254   -3.7549   26.7862 C   0  0  0  0  0  0  0  0  0  0  0  0
   10.5374   -4.0871   26.3244 C   0  0  0  0  0  0  0  0  0  0  0  0
    9.9919   -3.4592   25.0761 C   0  0  0  0  0  0  0  0  0  0  0  0
   10.8344   -2.4992   24.2896 C   0  0  0  0  0  0  0  0  0  0  0  0
 16 17  1  0  0  0
 17  4  1  0  0  0
  4  5  2  0  0  0
  4  6  1  0  0  0
  6  7  1  0  0  0
  7  8  1  0  0  0
  8  9  1  0  0  0
  9 10  1  0  0  0
 10 11  2  0  0  0
 11 12  1  0  0  0
 12 13  2  0  0  0
 13  1  1  0  0  0
  1 18  1  0  0  0
 18 19  1  0  0  0
 19 20  2  0  0  0
 20 21  1  0  0  0
 21 22  2  0  0  0
 22 23  1  0  0  0
 23 24  1  0  0  0
 23 25  2  0  0  0
  1  2  1  0  0  0
  2  3  2  0  0  0
  2 26  1  0  0  0
 26 27  1  0  0  0
 27 28  2  0  0  0
 28 29  1  0  0  0
 29 30  2  0  0  0
 30 31  1  0  0  0
 31 32  2  0  0  0
 32 33  1  0  0  0
 32 34  1  0  0  0
 34 35  2  0  0  0
 35 36  1  0  0  0
 36 37  2  0  0  0
 13 14  1  0  0  0
 14 15  2  0  0  0
 15  6  1  0  0  0
 15 10  1  0  0  0
 25 19  1  0  0  0
 37 27  1  0  0  0
 37 31  1  0  0  0
M  END
> <minimizedAffinity>
-8.78879

> <CNNscore>
0.7025983930

> <CNNaffinity>
7.2032327652

> <CNN_VS>
5.0609798431

> <CNNaffinity_variance>
0.0387059078

$$$$



 37 41  0  0  0  0  0  0  0  0999 V2000
    6.5475   -1.3758   22.1672 N   0  0  0  0  0  0  0  0  0  0  0  0
    8.0326   -1.3595   21.9567 C   0  0  0  0  0  0  0  0  0  0  0  0
    8.6355   -0.4398   20.9367 O   0  0  0  0  0  0  0  0  0  0  0  0
    2.5624    2.0658   23.4021 C   0  0  0  0  0  0  0  0  0  0  0  0
    3.4445    1.1623   24.2117 O   0  0  0  0  0  0  0  0  0  0  0  0
    2.7146    2.1233   21.9109 N   0  0  0  0  0  0  0  0  0  0  0  0
    1.8324    3.0267   21.1013 C   0  0  0  0  0  0  0  0  0  0  0  0
    1.9846    3.0842   19.6101 C   0  0  0  0  0  0  0  0  0  0  0  0
    3.0189    2.2382   18.9286 C   0  0  0  0  0  0  0  0  0  0  0  0
    3.9010    1.3348   19.7383 C   0  0  0  0  0  0  0  0  0  0  0  0
    4.9354    0.4887   19.0568 C   0  0  0  0  0  0  0  0  0  0  0  0
    5.8175   -0.4147   19.8664 C   0  0  0  0  0  0  0  0  0  0  0  0
    5.6654   -0.4722   21.3575 C   0  0  0  0  0  0  0  0  0  0  0  0
    4.6311    0.3738   22.0391 C   0  0  0  0  0  0  0  0  0  0  0  0
    3.7489    1.2773   21.2294 C   0  0  0  0  0  0  0  0  0  0  0  0
    0.5899    3.7513   23.2682 C   0  0  0  0  0  0  0  0  0  0  0  0
    1.5281    2.9117   24.0836 C   0  0  0  0  0  0  0  0  0  0  0  0
    5.9446   -2.2955   23.1873 C   0  0  0  0  0  0  0  0  0  0  0  0
    6.1926   -3.7725   23.1050 C   0  0  0  0  0  0  0  0  0  0  0  0
    6.8621   -4.4851   24.2425 C   0  0  0  0  0  0  0  0  0  0  0  0
    7.1102   -5.9621   24.1603 C   0  0  0  0  0  0  0  0  0  0  0  0
    6.6887   -6.7267   22.9404 C   0  0  0  0  0  0  0  0  0  0  0  0
    6.0192   -6.0141   21.8029 C   0  0  0  0  0  0  0  0  0  0  0  0
    5.5977   -6.7785   20.5831 Cl  0  0  0  0  0  0  0  0  0  0  0  0
    5.7712   -4.5369   21.8852 C   0  0  0  0  0  0  0  0  0  0  0  0
    8.9147   -2.2630   22.7664 C   0  0  0  0  0  0  0  0  0  0  0  0
   10.3000   -1.8232   23.1374 C   0  0  0  0  0  0  0  0  0  0  0  0
   11.0058   -0.7902   22.3099 C   0  0  0  0  0  0  0  0  0  0  0  0
   12.3910   -0.3505   22.6810 N   0  0  0  0  0  0  0  0  0  0  0  0
   13.0704   -0.9437   23.8795 C   0  0  0  0  0  0  0  0  0  0  0  0
   12.3646   -1.9767   24.7070 C   0  0  0  0  0  0  0  0  0  0  0  0
   13.0440   -2.5699   25.9055 C   0  0  0  0  0  0  0  0  0  0  0  0
   14.4293   -2.1302   26.2766 F   0  0  0  0  0  0  0  0  0  0  0  0
   12.3382   -3.6029   26.7330 C   0  0  0  0  0  0  0  0  0  0  0  0
   10.9529   -4.0427   26.3619 C   0  0  0  0  0  0  0  0  0  0  0  0
   10.2735   -3.4495   25.1634 C   0  0  0  0  0  0  0  0  0  0  0  0
   10.9794   -2.4165   24.3359 C   0  0  0  0  0  0  0  0  0  0  0  0
 16 17  1  0  0  0
 17  4  1  0  0  0
  4  5  2  0  0  0
  4  6  1  0  0  0
  6  7  1  0  0  0
  7  8  1  0  0  0
  8  9  1  0  0  0
  9 10  1  0  0  0
 10 11  2  0  0  0
 11 12  1  0  0  0
 12 13  2  0  0  0
 13  1  1  0  0  0
  1 18  1  0  0  0
 18 19  1  0  0  0
 19 20  2  0  0  0
 20 21  1  0  0  0
 21 22  2  0  0  0
 22 23  1  0  0  0
 23 24  1  0  0  0
 23 25  2  0  0  0
  1  2  1  0  0  0
  2  3  2  0  0  0
  2 26  1  0  0  0
 26 27  1  0  0  0
 27 28  2  0  0  0
 28 29  1  0  0  0
 29 30  2  0  0  0
 30 31  1  0  0  0
 31 32  2  0  0  0
 32 33  1  0  0  0
 32 34  1  0  0  0
 34 35  2  0  0  0
 35 36  1  0  0  0
 36 37  2  0  0  0
 13 14  1  0  0  0
 14 15  2  0  0  0
 15  6  1  0  0  0
 15 10  1  0  0  0
 25 19  1  0  0  0
 37 27  1  0  0  0
 37 31  1  0  0  0
M  END
> <minimizedAffinity>
-9.15589

> <CNNscore>
0.6610607505

> <CNNaffinity>
7.1532936096

> <CNN_VS>
4.7287616730

> <CNNaffinity_variance>
0.0328656845

$$$$



 37 41  0  0  0  0  0  0  0  0999 V2000
    6.8005   -1.7240   23.8214 N   0  0  0  0  0  0  0  0  0  0  0  0
    7.8553   -1.7077   22.7551 C   0  0  0  0  0  0  0  0  0  0  0  0
    7.7282   -0.7731   21.5887 O   0  0  0  0  0  0  0  0  0  0  0  0
    4.4446    0.9250   19.7370 C   0  0  0  0  0  0  0  0  0  0  0  0
    5.6265    0.0068   19.8369 O   0  0  0  0  0  0  0  0  0  0  0  0
    3.6540    1.2663   20.9652 N   0  0  0  0  0  0  0  0  0  0  0  0
    2.4721    2.1845   20.8653 C   0  0  0  0  0  0  0  0  0  0  0  0
    1.6816    2.5257   22.0935 C   0  0  0  0  0  0  0  0  0  0  0  0
    2.0729    1.9488   23.4216 C   0  0  0  0  0  0  0  0  0  0  0  0
    3.2547    1.0306   23.5215 C   0  0  0  0  0  0  0  0  0  0  0  0
    3.6461    0.4537   24.8497 C   0  0  0  0  0  0  0  0  0  0  0  0
    4.8280   -0.4645   24.9496 C   0  0  0  0  0  0  0  0  0  0  0  0
    5.6186   -0.8058   23.7214 C   0  0  0  0  0  0  0  0  0  0  0  0
    5.2273   -0.2289   22.3933 C   0  0  0  0  0  0  0  0  0  0  0  0
    4.0453    0.6894   22.2933 C   0  0  0  0  0  0  0  0  0  0  0  0
    4.9653    1.3511   17.2275 C   0  0  0  0  0  0  0  0  0  0  0  0
    4.0533    1.5019   18.4088 C   0  0  0  0  0  0  0  0  0  0  0  0
    6.9276   -2.6586   24.9877 C   0  0  0  0  0  0  0  0  0  0  0  0
    6.3568   -4.0433   24.9050 C   0  0  0  0  0  0  0  0  0  0  0  0
    4.9724   -4.3155   25.4141 C   0  0  0  0  0  0  0  0  0  0  0  0
    4.4016   -5.7001   25.3314 C   0  0  0  0  0  0  0  0  0  0  0  0
    5.2152   -6.8127   24.7394 C   0  0  0  0  0  0  0  0  0  0  0  0
    6.5996   -6.5405   24.2302 C   0  0  0  0  0  0  0  0  0  0  0  0
    7.4133   -7.6529   23.6383 Cl  0  0  0  0  0  0  0  0  0  0  0  0
    7.1704   -5.1557   24.3130 C   0  0  0  0  0  0  0  0  0  0  0  0
    9.0371   -2.6259   22.8551 C   0  0  0  0  0  0  0  0  0  0  0  0
   10.3941   -2.0701   23.1714 C   0  0  0  0  0  0  0  0  0  0  0  0
   11.0183   -1.0528   22.2630 C   0  0  0  0  0  0  0  0  0  0  0  0
   12.3751   -0.4971   22.5794 N   0  0  0  0  0  0  0  0  0  0  0  0
   13.1077   -0.9588   23.8042 C   0  0  0  0  0  0  0  0  0  0  0  0
   12.4835   -1.9761   24.7126 C   0  0  0  0  0  0  0  0  0  0  0  0
   13.2161   -2.4378   25.9374 C   0  0  0  0  0  0  0  0  0  0  0  0
   14.5730   -1.8821   26.2538 F   0  0  0  0  0  0  0  0  0  0  0  0
   12.5919   -3.4552   26.8458 C   0  0  0  0  0  0  0  0  0  0  0  0
   11.2350   -4.0109   26.5295 C   0  0  0  0  0  0  0  0  0  0  0  0
   10.5024   -3.5492   25.3047 C   0  0  0  0  0  0  0  0  0  0  0  0
   11.1267   -2.5318   24.3962 C   0  0  0  0  0  0  0  0  0  0  0  0
 16 17  1  0  0  0
 17  4  1  0  0  0
  4  5  2  0  0  0
  4  6  1  0  0  0
  6  7  1  0  0  0
  7  8  1  0  0  0
  8  9  1  0  0  0
  9 10  1  0  0  0
 10 11  2  0  0  0
 11 12  1  0  0  0
 12 13  2  0  0  0
 13  1  1  0  0  0
  1 18  1  0  0  0
 18 19  1  0  0  0
 19 20  2  0  0  0
 20 21  1  0  0  0
 21 22  2  0  0  0
 22 23  1  0  0  0
 23 24  1  0  0  0
 23 25  2  0  0  0
  1  2  1  0  0  0
  2  3  2  0  0  0
  2 26  1  0  0  0
 26 27  1  0  0  0
 27 28  2  0  0  0
 28 29  1  0  0  0
 29 30  2  0  0  0
 30 31  1  0  0  0
 31 32  2  0  0  0
 32 33  1  0  0  0
 32 34  1  0  0  0
 34 35  2  0  0  0
 35 36  1  0  0  0
 36 37  2  0  0  0
 13 14  1  0  0  0
 14 15  2  0  0  0
 15  6  1  0  0  0
 15 10  1  0  0  0
 25 19  1  0  0  0
 37 27  1  0  0  0
 37 31  1  0  0  0
M  END
> <minimizedAffinity>
-9.00002

> <CNNscore>
0.5880923271

> <CNNaffinity>
7.1729407310

> <CNN_VS>
4.2183513641

> <CNNaffinity_variance>
0.0505650565

$$$$



 37 41  0  0  0  0  0  0  0  0999 V2000
    9.7107   -0.4839   22.9287 N   0  0  0  0  0  0  0  0  0  0  0  0
    8.2599   -0.8452   23.0492 C   0  0  0  0  0  0  0  0  0  0  0  0
    7.2241    0.2347   23.1530 O   0  0  0  0  0  0  0  0  0  0  0  0
    7.0290    4.1957   23.3289 C   0  0  0  0  0  0  0  0  0  0  0  0
    6.6139    2.7544   23.3456 O   0  0  0  0  0  0  0  0  0  0  0  0
    8.4763    4.5576   23.1733 N   0  0  0  0  0  0  0  0  0  0  0  0
    8.8914    5.9989   23.1565 C   0  0  0  0  0  0  0  0  0  0  0  0
   10.3387    6.3608   23.0009 C   0  0  0  0  0  0  0  0  0  0  0  0
   11.3710    5.2815   22.8619 C   0  0  0  0  0  0  0  0  0  0  0  0
   10.9559    3.8402   22.8786 C   0  0  0  0  0  0  0  0  0  0  0  0
   11.9882    2.7607   22.7396 C   0  0  0  0  0  0  0  0  0  0  0  0
   11.5731    1.3194   22.7563 C   0  0  0  0  0  0  0  0  0  0  0  0
   10.1257    0.9575   22.9120 C   0  0  0  0  0  0  0  0  0  0  0  0
    9.0935    2.0369   23.0510 C   0  0  0  0  0  0  0  0  0  0  0  0
    9.5086    3.4783   23.0343 C   0  0  0  0  0  0  0  0  0  0  0  0
    5.2429    5.7517   22.2619 C   0  0  0  0  0  0  0  0  0  0  0  0
    5.9967    5.2751   23.4679 C   0  0  0  0  0  0  0  0  0  0  0  0
   10.7465   -1.5639   22.8249 C   0  0  0  0  0  0  0  0  0  0  0  0
   11.4728   -2.0270   24.0529 C   0  0  0  0  0  0  0  0  0  0  0  0
   12.8599   -1.5312   24.3356 C   0  0  0  0  0  0  0  0  0  0  0  0
   13.5862   -1.9943   25.5636 C   0  0  0  0  0  0  0  0  0  0  0  0
   12.9253   -2.9534   26.5089 C   0  0  0  0  0  0  0  0  0  0  0  0
   11.5382   -3.4492   26.2262 C   0  0  0  0  0  0  0  0  0  0  0  0
   10.8773   -4.4082   27.1714 Cl  0  0  0  0  0  0  0  0  0  0  0  0
   10.8119   -2.9860   24.9981 C   0  0  0  0  0  0  0  0  0  0  0  0
    7.8449   -2.2866   23.0659 C   0  0  0  0  0  0  0  0  0  0  0  0
    7.0406   -2.8222   24.2132 C   0  0  0  0  0  0  0  0  0  0  0  0
    6.6972   -1.9305   25.3694 C   0  0  0  0  0  0  0  0  0  0  0  0
    5.8929   -2.4662   26.5167 N   0  0  0  0  0  0  0  0  0  0  0  0
    5.4320   -3.8936   26.5076 C   0  0  0  0  0  0  0  0  0  0  0  0
    5.7754   -4.7853   25.3514 C   0  0  0  0  0  0  0  0  0  0  0  0
    5.3144   -6.2127   25.3424 C   0  0  0  0  0  0  0  0  0  0  0  0
    4.5101   -6.7484   26.4896 F   0  0  0  0  0  0  0  0  0  0  0  0
    5.6578   -7.1044   24.1861 C   0  0  0  0  0  0  0  0  0  0  0  0
    6.4621   -6.5688   23.0388 C   0  0  0  0  0  0  0  0  0  0  0  0
    6.9230   -5.1414   23.0479 C   0  0  0  0  0  0  0  0  0  0  0  0
    6.5796   -4.2496   24.2042 C   0  0  0  0  0  0  0  0  0  0  0  0
 16 17  1  0  0  0
 17  4  1  0  0  0
  4  5  2  0  0  0
  4  6  1  0  0  0
  6  7  1  0  0  0
  7  8  1  0  0  0
  8  9  1  0  0  0
  9 10  1  0  0  0
 10 11  2  0  0  0
 11 12  1  0  0  0
 12 13  2  0  0  0
 13  1  1  0  0  0
  1 18  1  0  0  0
 18 19  1  0  0  0
 19 20  2  0  0  0
 20 21  1  0  0  0
 21 22  2  0  0  0
 22 23  1  0  0  0
 23 24  1  0  0  0
 23 25  2  0  0  0
  1  2  1  0  0  0
  2  3  2  0  0  0
  2 26  1  0  0  0
 26 27  1  0  0  0
 27 28  2  0  0  0
 28 29  1  0  0  0
 29 30  2  0  0  0
 30 31  1  0  0  0
 31 32  2  0  0  0
 32 33  1  0  0  0
 32 34  1  0  0  0
 34 35  2  0  0  0
 35 36  1  0  0  0
 36 37  2  0  0  0
 13 14  1  0  0  0
 14 15  2  0  0  0
 15  6  1  0  0  0
 15 10  1  0  0  0
 25 19  1  0  0  0
 37 27  1  0  0  0
 37 31  1  0  0  0
M  END
> <minimizedAffinity>
-8.52870

> <CNNscore>
0.5714633465

> <CNNaffinity>
7.1455965042

> <CNN_VS>
4.0834465027

> <CNNaffinity_variance>
0.1277564317

$$$$



 37 41  0  0  0  0  0  0  0  0999 V2000
    6.7144   -2.0235   24.6398 N   0  0  0  0  0  0  0  0  0  0  0  0
    6.3522   -0.6137   24.2777 C   0  0  0  0  0  0  0  0  0  0  0  0
    7.3590    0.4857   24.4441 O   0  0  0  0  0  0  0  0  0  0  0  0
   11.7252   -1.2537   22.7557 C   0  0  0  0  0  0  0  0  0  0  0  0
   10.3563   -0.9432   22.2272 O   0  0  0  0  0  0  0  0  0  0  0  0
   11.8804   -1.9243   24.0885 N   0  0  0  0  0  0  0  0  0  0  0  0
   13.2493   -2.2349   24.6170 C   0  0  0  0  0  0  0  0  0  0  0  0
   13.4044   -2.9055   25.9498 C   0  0  0  0  0  0  0  0  0  0  0  0
   12.1906   -3.2656   26.7540 C   0  0  0  0  0  0  0  0  0  0  0  0
   10.8216   -2.9551   26.2254 C   0  0  0  0  0  0  0  0  0  0  0  0
    9.6076   -3.3152   27.0296 C   0  0  0  0  0  0  0  0  0  0  0  0
    8.2386   -3.0047   26.5011 C   0  0  0  0  0  0  0  0  0  0  0  0
    8.0835   -2.3340   25.1683 C   0  0  0  0  0  0  0  0  0  0  0  0
    9.2974   -1.9739   24.3641 C   0  0  0  0  0  0  0  0  0  0  0  0
   10.6665   -2.2844   24.8927 C   0  0  0  0  0  0  0  0  0  0  0  0
   13.3290   -1.7280   20.7675 C   0  0  0  0  0  0  0  0  0  0  0  0
   12.9391   -0.8936   21.9515 C   0  0  0  0  0  0  0  0  0  0  0  0
    5.7076   -3.1229   24.4734 C   0  0  0  0  0  0  0  0  0  0  0  0
    6.1137   -4.4230   23.8450 C   0  0  0  0  0  0  0  0  0  0  0  0
    6.9839   -5.3823   24.6016 C   0  0  0  0  0  0  0  0  0  0  0  0
    7.3899   -6.6823   23.9732 C   0  0  0  0  0  0  0  0  0  0  0  0
    6.9258   -7.0231   22.5880 C   0  0  0  0  0  0  0  0  0  0  0  0
    6.0556   -6.0638   21.8314 C   0  0  0  0  0  0  0  0  0  0  0  0
    5.5915   -6.4045   20.4464 Cl  0  0  0  0  0  0  0  0  0  0  0  0
    5.6495   -4.7637   22.4599 C   0  0  0  0  0  0  0  0  0  0  0  0
    4.9832   -0.3033   23.7492 C   0  0  0  0  0  0  0  0  0  0  0  0
    4.7961    0.0238   22.2973 C   0  0  0  0  0  0  0  0  0  0  0  0
    5.5272   -0.7637   21.2508 C   0  0  0  0  0  0  0  0  0  0  0  0
    5.3401   -0.4366   19.7989 N   0  0  0  0  0  0  0  0  0  0  0  0
    4.4219    0.6781   19.3935 C   0  0  0  0  0  0  0  0  0  0  0  0
    3.6908    1.4656   20.4400 C   0  0  0  0  0  0  0  0  0  0  0  0
    2.7726    2.5803   20.0346 C   0  0  0  0  0  0  0  0  0  0  0  0
    2.5855    2.9074   18.5828 F   0  0  0  0  0  0  0  0  0  0  0  0
    2.0415    3.3679   21.0811 C   0  0  0  0  0  0  0  0  0  0  0  0
    2.2285    3.0408   22.5330 C   0  0  0  0  0  0  0  0  0  0  0  0
    3.1468    1.9261   22.9384 C   0  0  0  0  0  0  0  0  0  0  0  0
    3.8779    1.1385   21.8919 C   0  0  0  0  0  0  0  0  0  0  0  0
 16 17  1  0  0  0
 17  4  1  0  0  0
  4  5  2  0  0  0
  4  6  1  0  0  0
  6  7  1  0  0  0
  7  8  1  0  0  0
  8  9  1  0  0  0
  9 10  1  0  0  0
 10 11  2  0  0  0
 11 12  1  0  0  0
 12 13  2  0  0  0
 13  1  1  0  0  0
  1 18  1  0  0  0
 18 19  1  0  0  0
 19 20  2  0  0  0
 20 21  1  0  0  0
 21 22  2  0  0  0
 22 23  1  0  0  0
 23 24  1  0  0  0
 23 25  2  0  0  0
  1  2  1  0  0  0
  2  3  2  0  0  0
  2 26  1  0  0  0
 26 27  1  0  0  0
 27 28  2  0  0  0
 28 29  1  0  0  0
 29 30  2  0  0  0
 30 31  1  0  0  0
 31 32  2  0  0  0
 32 33  1  0  0  0
 32 34  1  0  0  0
 34 35  2  0  0  0
 35 36  1  0  0  0
 36 37  2  0  0  0
 13 14  1  0  0  0
 14 15  2  0  0  0
 15  6  1  0  0  0
 15 10  1  0  0  0
 25 19  1  0  0  0
 37 27  1  0  0  0
 37 31  1  0  0  0
M  END
> <minimizedAffinity>
-8.44098

> <CNNscore>
0.5184363723

> <CNNaffinity>
7.1515059471

> <CNN_VS>
3.7076008320

> <CNNaffinity_variance>
0.0958697498

$$$$



 37 41  0  0  0  0  0  0  0  0999 V2000
    7.0088   -0.9385   22.3990 N   0  0  0  0  0  0  0  0  0  0  0  0
    6.5972   -0.5505   21.0098 C   0  0  0  0  0  0  0  0  0  0  0  0
    7.6208   -0.0406   20.0391 O   0  0  0  0  0  0  0  0  0  0  0  0
   10.2280   -3.8321   25.6416 C   0  0  0  0  0  0  0  0  0  0  0  0
    8.7928   -3.9540   25.2231 O   0  0  0  0  0  0  0  0  0  0  0  0
   11.0687   -2.7052   25.1188 N   0  0  0  0  0  0  0  0  0  0  0  0
   12.5039   -2.5833   25.5373 C   0  0  0  0  0  0  0  0  0  0  0  0
   13.3445   -1.4564   25.0145 C   0  0  0  0  0  0  0  0  0  0  0  0
   12.7499   -0.4513   24.0732 C   0  0  0  0  0  0  0  0  0  0  0  0
   11.3147   -0.5731   23.6547 C   0  0  0  0  0  0  0  0  0  0  0  0
   10.7200    0.4320   22.7133 C   0  0  0  0  0  0  0  0  0  0  0  0
    9.2848    0.3102   22.2948 C   0  0  0  0  0  0  0  0  0  0  0  0
    8.4442   -0.8167   22.8176 C   0  0  0  0  0  0  0  0  0  0  0  0
    9.0388   -1.8219   23.7589 C   0  0  0  0  0  0  0  0  0  0  0  0
   10.4741   -1.7001   24.1775 C   0  0  0  0  0  0  0  0  0  0  0  0
   10.7846   -4.5933   28.0625 C   0  0  0  0  0  0  0  0  0  0  0  0
   10.8226   -4.8372   26.5829 C   0  0  0  0  0  0  0  0  0  0  0  0
    5.9852   -1.4484   23.3697 C   0  0  0  0  0  0  0  0  0  0  0  0
    5.8631   -2.9212   23.6263 C   0  0  0  0  0  0  0  0  0  0  0  0
    5.3818   -3.4130   24.9591 C   0  0  0  0  0  0  0  0  0  0  0  0
    5.2597   -4.8858   25.2157 C   0  0  0  0  0  0  0  0  0  0  0  0
    5.6190   -5.8669   24.1394 C   0  0  0  0  0  0  0  0  0  0  0  0
    6.1003   -5.3752   22.8065 C   0  0  0  0  0  0  0  0  0  0  0  0
    6.4595   -6.3563   21.7303 Cl  0  0  0  0  0  0  0  0  0  0  0  0
    6.2224   -3.9023   22.5500 C   0  0  0  0  0  0  0  0  0  0  0  0
    5.1620   -0.6723   20.5913 C   0  0  0  0  0  0  0  0  0  0  0  0
    4.3773    0.5560   20.2366 C   0  0  0  0  0  0  0  0  0  0  0  0
    4.3212    1.0251   18.8130 C   0  0  0  0  0  0  0  0  0  0  0  0
    3.5365    2.2533   18.4584 N   0  0  0  0  0  0  0  0  0  0  0  0
    2.8080    3.0124   19.5275 C   0  0  0  0  0  0  0  0  0  0  0  0
    2.8641    2.5434   20.9511 C   0  0  0  0  0  0  0  0  0  0  0  0
    2.1355    3.3025   22.0202 C   0  0  0  0  0  0  0  0  0  0  0  0
    1.3508    4.5307   21.6656 F   0  0  0  0  0  0  0  0  0  0  0  0
    2.1916    2.8334   23.4438 C   0  0  0  0  0  0  0  0  0  0  0  0
    2.9763    1.6052   23.7985 C   0  0  0  0  0  0  0  0  0  0  0  0
    3.7049    0.8460   22.7294 C   0  0  0  0  0  0  0  0  0  0  0  0
    3.6487    1.3151   21.3057 C   0  0  0  0  0  0  0  0  0  0  0  0
 16 17  1  0  0  0
 17  4  1  0  0  0
  4  5  2  0  0  0
  4  6  1  0  0  0
  6  7  1  0  0  0
  7  8  1  0  0  0
  8  9  1  0  0  0
  9 10  1  0  0  0
 10 11  2  0  0  0
 11 12  1  0  0  0
 12 13  2  0  0  0
 13  1  1  0  0  0
  1 18  1  0  0  0
 18 19  1  0  0  0
 19 20  2  0  0  0
 20 21  1  0  0  0
 21 22  2  0  0  0
 22 23  1  0  0  0
 23 24  1  0  0  0
 23 25  2  0  0  0
  1  2  1  0  0  0
  2  3  2  0  0  0
  2 26  1  0  0  0
 26 27  1  0  0  0
 27 28  2  0  0  0
 28 29  1  0  0  0
 29 30  2  0  0  0
 30 31  1  0  0  0
 31 32  2  0  0  0
 32 33  1  0  0  0
 32 34  1  0  0  0
 34 35  2  0  0  0
 35 36  1  0  0  0
 36 37  2  0  0  0
 13 14  1  0  0  0
 14 15  2  0  0  0
 15  6  1  0  0  0
 15 10  1  0  0  0
 25 19  1  0  0  0
 37 27  1  0  0  0
 37 31  1  0  0  0
M  END
> <minimizedAffinity>
-8.05748

> <CNNscore>
0.4760308862

> <CNNaffinity>
6.9956512451

> <CNN_VS>
3.3301460743

> <CNNaffinity_variance>
0.0970002040

$$$$



 37 41  0  0  0  0  0  0  0  0999 V2000
    6.8916   -2.4677   23.2036 N   0  0  0  0  0  0  0  0  0  0  0  0
    6.2819   -1.9416   21.9381 C   0  0  0  0  0  0  0  0  0  0  0  0
    5.2599   -2.7568   21.2026 O   0  0  0  0  0  0  0  0  0  0  0  0
    3.9570   -4.0814   27.4503 C   0  0  0  0  0  0  0  0  0  0  0  0
    4.3693   -2.7401   26.9203 O   0  0  0  0  0  0  0  0  0  0  0  0
    4.3855   -5.3319   26.7414 N   0  0  0  0  0  0  0  0  0  0  0  0
    3.9732   -6.6732   27.2714 C   0  0  0  0  0  0  0  0  0  0  0  0
    4.4016   -7.9237   26.5624 C   0  0  0  0  0  0  0  0  0  0  0  0
    5.2424   -7.8330   25.3236 C   0  0  0  0  0  0  0  0  0  0  0  0
    5.6547   -6.4917   24.7936 C   0  0  0  0  0  0  0  0  0  0  0  0
    6.4954   -6.4009   23.5546 C   0  0  0  0  0  0  0  0  0  0  0  0
    6.9077   -5.0596   23.0247 C   0  0  0  0  0  0  0  0  0  0  0  0
    6.4793   -3.8090   23.7336 C   0  0  0  0  0  0  0  0  0  0  0  0
    5.6385   -3.8998   24.9725 C   0  0  0  0  0  0  0  0  0  0  0  0
    5.2262   -5.2411   25.5025 C   0  0  0  0  0  0  0  0  0  0  0  0
    3.0481   -5.4591   29.4567 C   0  0  0  0  0  0  0  0  0  0  0  0
    3.1162   -4.1721   28.6892 C   0  0  0  0  0  0  0  0  0  0  0  0
    7.9136   -1.6525   23.9391 C   0  0  0  0  0  0  0  0  0  0  0  0
    9.0485   -2.3328   24.6456 C   0  0  0  0  0  0  0  0  0  0  0  0
    8.9338   -3.7780   25.0306 C   0  0  0  0  0  0  0  0  0  0  0  0
   10.0687   -4.4582   25.7371 C   0  0  0  0  0  0  0  0  0  0  0  0
   11.3183   -3.6933   26.0587 C   0  0  0  0  0  0  0  0  0  0  0  0
   11.4330   -2.2481   25.6737 C   0  0  0  0  0  0  0  0  0  0  0  0
   12.6825   -1.4831   25.9953 Cl  0  0  0  0  0  0  0  0  0  0  0  0
   10.2980   -1.5678   24.9672 C   0  0  0  0  0  0  0  0  0  0  0  0
    6.6942   -0.6003   21.4081 C   0  0  0  0  0  0  0  0  0  0  0  0
    5.9442    0.0175   20.2654 C   0  0  0  0  0  0  0  0  0  0  0  0
    6.4435   -0.1527   18.8612 C   0  0  0  0  0  0  0  0  0  0  0  0
    5.6935    0.4651   17.7185 N   0  0  0  0  0  0  0  0  0  0  0  0
    4.4442    1.2531   17.9800 C   0  0  0  0  0  0  0  0  0  0  0  0
    3.9449    1.4233   19.3841 C   0  0  0  0  0  0  0  0  0  0  0  0
    2.6957    2.2113   19.6456 C   0  0  0  0  0  0  0  0  0  0  0  0
    1.9457    2.8290   18.5029 F   0  0  0  0  0  0  0  0  0  0  0  0
    2.1964    2.3815   21.0497 C   0  0  0  0  0  0  0  0  0  0  0  0
    2.9464    1.7637   22.1925 C   0  0  0  0  0  0  0  0  0  0  0  0
    4.1957    0.9757   21.9311 C   0  0  0  0  0  0  0  0  0  0  0  0
    4.6949    0.8055   20.5268 C   0  0  0  0  0  0  0  0  0  0  0  0
 16 17  1  0  0  0
 17  4  1  0  0  0
  4  5  2  0  0  0
  4  6  1  0  0  0
  6  7  1  0  0  0
  7  8  1  0  0  0
  8  9  1  0  0  0
  9 10  1  0  0  0
 10 11  2  0  0  0
 11 12  1  0  0  0
 12 13  2  0  0  0
 13  1  1  0  0  0
  1 18  1  0  0  0
 18 19  1  0  0  0
 19 20  2  0  0  0
 20 21  1  0  0  0
 21 22  2  0  0  0
 22 23  1  0  0  0
 23 24  1  0  0  0
 23 25  2  0  0  0
  1  2  1  0  0  0
  2  3  2  0  0  0
  2 26  1  0  0  0
 26 27  1  0  0  0
 27 28  2  0  0  0
 28 29  1  0  0  0
 29 30  2  0  0  0
 30 31  1  0  0  0
 31 32  2  0  0  0
 32 33  1  0  0  0
 32 34  1  0  0  0
 34 35  2  0  0  0
 35 36  1  0  0  0
 36 37  2  0  0  0
 13 14  1  0  0  0
 14 15  2  0  0  0
 15  6  1  0  0  0
 15 10  1  0  0  0
 25 19  1  0  0  0
 37 27  1  0  0  0
 37 31  1  0  0  0
M  END
> <minimizedAffinity>
-8.67022

> <CNNscore>
0.4490316212

> <CNNaffinity>
6.6501412392

> <CNN_VS>
2.9861238003

> <CNNaffinity_variance>
0.2902407050

$$$$



 37 41  0  0  0  0  0  0  0  0999 V2000
    6.1176   -1.8526   22.0152 N   0  0  0  0  0  0  0  0  0  0  0  0
    7.5345   -1.6494   22.4635 C   0  0  0  0  0  0  0  0  0  0  0  0
    8.0562   -0.2623   22.6955 O   0  0  0  0  0  0  0  0  0  0  0  0
    3.3141    1.3827   25.3203 C   0  0  0  0  0  0  0  0  0  0  0  0
    4.2094    0.1988   25.5367 O   0  0  0  0  0  0  0  0  0  0  0  0
    3.0548    1.8828   23.9301 N   0  0  0  0  0  0  0  0  0  0  0  0
    2.1595    3.0666   23.7137 C   0  0  0  0  0  0  0  0  0  0  0  0
    1.9003    3.5668   22.3235 C   0  0  0  0  0  0  0  0  0  0  0  0
    2.5363    2.8830   21.1497 C   0  0  0  0  0  0  0  0  0  0  0  0
    3.4316    1.6991   21.3661 C   0  0  0  0  0  0  0  0  0  0  0  0
    4.0677    1.0153   20.1922 C   0  0  0  0  0  0  0  0  0  0  0  0
    4.9630   -0.1685   20.4086 C   0  0  0  0  0  0  0  0  0  0  0  0
    5.2223   -0.6686   21.7988 C   0  0  0  0  0  0  0  0  0  0  0  0
    4.5862    0.0151   22.9727 C   0  0  0  0  0  0  0  0  0  0  0  0
    3.6909    1.1990   22.7563 C   0  0  0  0  0  0  0  0  0  0  0  0
    3.4758    3.0270   27.3253 C   0  0  0  0  0  0  0  0  0  0  0  0
    2.6780    2.0664   26.4941 C   0  0  0  0  0  0  0  0  0  0  0  0
    5.5960   -3.2397   21.7832 C   0  0  0  0  0  0  0  0  0  0  0  0
    5.7413   -4.2838   22.8502 C   0  0  0  0  0  0  0  0  0  0  0  0
    5.1737   -4.0430   24.2176 C   0  0  0  0  0  0  0  0  0  0  0  0
    5.3190   -5.0871   25.2846 C   0  0  0  0  0  0  0  0  0  0  0  0
    6.0321   -6.3722   24.9843 C   0  0  0  0  0  0  0  0  0  0  0  0
    6.5997   -6.6131   23.6169 C   0  0  0  0  0  0  0  0  0  0  0  0
    7.3127   -7.8982   23.3165 Cl  0  0  0  0  0  0  0  0  0  0  0  0
    6.4543   -5.5689   22.5498 C   0  0  0  0  0  0  0  0  0  0  0  0
    8.4298   -2.8333   22.6799 C   0  0  0  0  0  0  0  0  0  0  0  0
    9.3375   -2.8791   23.8732 C   0  0  0  0  0  0  0  0  0  0  0  0
    8.8831   -3.5491   25.1359 C   0  0  0  0  0  0  0  0  0  0  0  0
    9.7908   -3.5949   26.3292 N   0  0  0  0  0  0  0  0  0  0  0  0
   11.1529   -2.9706   26.2598 C   0  0  0  0  0  0  0  0  0  0  0  0
   11.6074   -2.3005   24.9971 C   0  0  0  0  0  0  0  0  0  0  0  0
   12.9695   -1.6762   24.9276 C   0  0  0  0  0  0  0  0  0  0  0  0
   13.8772   -1.7220   26.1209 F   0  0  0  0  0  0  0  0  0  0  0  0
   13.4239   -1.0061   23.6650 C   0  0  0  0  0  0  0  0  0  0  0  0
   12.5162   -0.9603   22.4716 C   0  0  0  0  0  0  0  0  0  0  0  0
   11.1541   -1.5846   22.5410 C   0  0  0  0  0  0  0  0  0  0  0  0
   10.6997   -2.2547   23.8038 C   0  0  0  0  0  0  0  0  0  0  0  0
 16 17  1  0  0  0
 17  4  1  0  0  0
  4  5  2  0  0  0
  4  6  1  0  0  0
  6  7  1  0  0  0
  7  8  1  0  0  0
  8  9  1  0  0  0
  9 10  1  0  0  0
 10 11  2  0  0  0
 11 12  1  0  0  0
 12 13  2  0  0  0
 13  1  1  0  0  0
  1 18  1  0  0  0
 18 19  1  0  0  0
 19 20  2  0  0  0
 20 21  1  0  0  0
 21 22  2  0  0  0
 22 23  1  0  0  0
 23 24  1  0  0  0
 23 25  2  0  0  0
  1  2  1  0  0  0
  2  3  2  0  0  0
  2 26  1  0  0  0
 26 27  1  0  0  0
 27 28  2  0  0  0
 28 29  1  0  0  0
 29 30  2  0  0  0
 30 31  1  0  0  0
 31 32  2  0  0  0
 32 33  1  0  0  0
 32 34  1  0  0  0
 34 35  2  0  0  0
 35 36  1  0  0  0
 36 37  2  0  0  0
 13 14  1  0  0  0
 14 15  2  0  0  0
 15  6  1  0  0  0
 15 10  1  0  0  0
 25 19  1  0  0  0
 37 27  1  0  0  0
 37 31  1  0  0  0
M  END
> <minimizedAffinity>
-7.33617

> <CNNscore>
0.4102438390

> <CNNaffinity>
6.9974374771

> <CNN_VS>
2.8706555367

> <CNNaffinity_variance>
0.0599146709

$$$$



 37 41  0  0  0  0  0  0  0  0999 V2000
    8.1443    0.8499   23.2230 N   0  0  0  0  0  0  0  0  0  0  0  0
    8.5560    0.0028   22.0556 C   0  0  0  0  0  0  0  0  0  0  0  0
    8.2463    0.4504   20.6579 O   0  0  0  0  0  0  0  0  0  0  0  0
    3.2377    2.1251   21.3390 C   0  0  0  0  0  0  0  0  0  0  0  0
    3.9592    0.8304   21.5692 O   0  0  0  0  0  0  0  0  0  0  0  0
    3.9113    3.4264   21.6599 N   0  0  0  0  0  0  0  0  0  0  0  0
    3.1898    4.7211   21.4297 C   0  0  0  0  0  0  0  0  0  0  0  0
    3.8633    6.0224   21.7506 C   0  0  0  0  0  0  0  0  0  0  0  0
    5.2583    6.0290   22.3018 C   0  0  0  0  0  0  0  0  0  0  0  0
    5.9798    4.7342   22.5321 C   0  0  0  0  0  0  0  0  0  0  0  0
    7.3748    4.7407   23.0834 C   0  0  0  0  0  0  0  0  0  0  0  0
    8.0963    3.4460   23.3137 C   0  0  0  0  0  0  0  0  0  0  0  0
    7.4228    2.1447   22.9927 C   0  0  0  0  0  0  0  0  0  0  0  0
    6.0278    2.1381   22.4415 C   0  0  0  0  0  0  0  0  0  0  0  0
    5.3062    3.4329   22.2112 C   0  0  0  0  0  0  0  0  0  0  0  0
    1.6031    2.4696   19.3492 C   0  0  0  0  0  0  0  0  0  0  0  0
    1.8427    2.1186   20.7877 C   0  0  0  0  0  0  0  0  0  0  0  0
    8.4541    0.4023   24.6207 C   0  0  0  0  0  0  0  0  0  0  0  0
    7.3381    0.1101   25.5794 C   0  0  0  0  0  0  0  0  0  0  0  0
    6.6529   -1.2239   25.5488 C   0  0  0  0  0  0  0  0  0  0  0  0
    5.5369   -1.5161   26.5074 C   0  0  0  0  0  0  0  0  0  0  0  0
    5.1059   -0.4741   27.4968 C   0  0  0  0  0  0  0  0  0  0  0  0
    5.7911    0.8599   27.5274 C   0  0  0  0  0  0  0  0  0  0  0  0
    5.3602    1.9018   28.5167 Cl  0  0  0  0  0  0  0  0  0  0  0  0
    6.9072    1.1520   26.5687 C   0  0  0  0  0  0  0  0  0  0  0  0
    9.2775   -1.2919   22.2860 C   0  0  0  0  0  0  0  0  0  0  0  0
   10.5821   -1.3022   23.0264 C   0  0  0  0  0  0  0  0  0  0  0  0
   11.6831   -0.3687   22.6188 C   0  0  0  0  0  0  0  0  0  0  0  0
   12.9876   -0.3789   23.3592 N   0  0  0  0  0  0  0  0  0  0  0  0
   13.1910   -1.3227   24.5071 C   0  0  0  0  0  0  0  0  0  0  0  0
   12.0900   -2.2562   24.9147 C   0  0  0  0  0  0  0  0  0  0  0  0
   12.2934   -3.2000   26.0627 C   0  0  0  0  0  0  0  0  0  0  0  0
   13.5978   -3.2103   26.8031 F   0  0  0  0  0  0  0  0  0  0  0  0
   11.1923   -4.1335   26.4703 C   0  0  0  0  0  0  0  0  0  0  0  0
    9.8878   -4.1233   25.7299 C   0  0  0  0  0  0  0  0  0  0  0  0
    9.6844   -3.1795   24.5819 C   0  0  0  0  0  0  0  0  0  0  0  0
   10.7855   -2.2460   24.1744 C   0  0  0  0  0  0  0  0  0  0  0  0
 16 17  1  0  0  0
 17  4  1  0  0  0
  4  5  2  0  0  0
  4  6  1  0  0  0
  6  7  1  0  0  0
  7  8  1  0  0  0
  8  9  1  0  0  0
  9 10  1  0  0  0
 10 11  2  0  0  0
 11 12  1  0  0  0
 12 13  2  0  0  0
 13  1  1  0  0  0
  1 18  1  0  0  0
 18 19  1  0  0  0
 19 20  2  0  0  0
 20 21  1  0  0  0
 21 22  2  0  0  0
 22 23  1  0  0  0
 23 24  1  0  0  0
 23 25  2  0  0  0
  1  2  1  0  0  0
  2  3  2  0  0  0
  2 26  1  0  0  0
 26 27  1  0  0  0
 27 28  2  0  0  0
 28 29  1  0  0  0
 29 30  2  0  0  0
 30 31  1  0  0  0
 31 32  2  0  0  0
 32 33  1  0  0  0
 32 34  1  0  0  0
 34 35  2  0  0  0
 35 36  1  0  0  0
 36 37  2  0  0  0
 13 14  1  0  0  0
 14 15  2  0  0  0
 15  6  1  0  0  0
 15 10  1  0  0  0
 25 19  1  0  0  0
 37 27  1  0  0  0
 37 31  1  0  0  0
M  END
> <minimizedAffinity>
-7.93806

> <CNNscore>
0.3947413266

> <CNNaffinity>
6.7657518387

> <CNN_VS>
2.6707217693

> <CNNaffinity_variance>
0.0787837133

$$$$
