


 19 21  0  0  0  0  0  0  0  0999 V2000
   -5.5908   -1.5295  -20.3840 C   0  0  0  0  0  0  0  0  0  0  0  0
   -6.1371   -1.7707  -19.0081 C   0  0  0  0  0  0  0  0  0  0  0  0
   -5.7749   -0.8453  -17.8845 N   0  0  0  0  0  0  0  0  0  0  0  0
   -4.8663    0.3212  -18.1368 C   0  0  0  0  0  0  0  0  0  0  0  0
   -4.3200    0.5624  -19.5129 C   0  0  0  0  0  0  0  0  0  0  0  0
   -3.4114    1.7289  -19.7652 C   0  0  0  0  0  0  0  0  0  0  0  0
   -2.8651    1.9701  -21.1412 C   0  0  0  0  0  0  0  0  0  0  0  0
   -3.2273    1.0447  -22.2648 C   0  0  0  0  0  0  0  0  0  0  0  0
   -4.1359   -0.1218  -22.0124 C   0  0  0  0  0  0  0  0  0  0  0  0
   -4.6822   -0.3630  -20.6365 C   0  0  0  0  0  0  0  0  0  0  0  0
   -5.9530   -2.4549  -21.5076 C   0  0  0  0  0  0  0  0  0  0  0  0
   -5.2531   -4.5114  -20.0824 O   0  0  0  0  0  0  0  0  0  0  0  0
   -5.9262   -3.9395  -21.2949 C   0  0  0  0  0  0  0  0  0  0  0  0
   -6.5724   -4.8522  -22.2945 N   0  0  0  0  0  0  0  0  0  0  0  0
   -7.2455   -4.2804  -23.5069 C   0  0  0  0  0  0  0  0  0  0  0  0
   -7.8918   -5.1931  -24.5065 C   0  0  0  0  0  0  0  0  0  0  0  0
   -7.8650   -6.6777  -24.2937 C   0  0  0  0  0  0  0  0  0  0  0  0
   -7.1919   -7.2496  -23.0813 C   0  0  0  0  0  0  0  0  0  0  0  0
   -6.5456   -6.3369  -22.0817 C   0  0  0  0  0  0  0  0  0  0  0  0
 12 13  2  0  0  0
 13 11  1  0  0  0
 11  1  1  0  0  0
  1  2  2  0  0  0
  2  3  1  0  0  0
  3  4  2  0  0  0
  4  5  1  0  0  0
  5  6  2  0  0  0
  6  7  1  0  0  0
  7  8  2  0  0  0
  8  9  1  0  0  0
  9 10  2  0  0  0
 13 14  1  0  0  0
 14 15  1  0  0  0
 15 16  1  0  0  0
 16 17  1  0  0  0
 17 18  1  0  0  0
 18 19  1  0  0  0
 10  1  1  0  0  0
 19 14  1  0  0  0
 10  5  1  0  0  0
M  END
> <minimizedAffinity>
-6.85991

> <CNNscore>
0.9242345095

> <CNNaffinity>
5.0516266823

> <CNN_VS>
4.6688876152

> <CNNaffinity_variance>
0.2229015082

$$$$



 19 21  0  0  0  0  0  0  0  0999 V2000
   -6.1093   -1.2811  -20.4886 C   0  0  0  0  0  0  0  0  0  0  0  0
   -6.6863   -1.4014  -19.1093 C   0  0  0  0  0  0  0  0  0  0  0  0
   -6.1207   -0.5844  -17.9858 N   0  0  0  0  0  0  0  0  0  0  0  0
   -4.9780    0.3530  -18.2415 C   0  0  0  0  0  0  0  0  0  0  0  0
   -4.4009    0.4734  -19.6208 C   0  0  0  0  0  0  0  0  0  0  0  0
   -3.2582    1.4109  -19.8766 C   0  0  0  0  0  0  0  0  0  0  0  0
   -2.6812    1.5312  -21.2559 C   0  0  0  0  0  0  0  0  0  0  0  0
   -3.2468    0.7142  -22.3794 C   0  0  0  0  0  0  0  0  0  0  0  0
   -4.3895   -0.2232  -22.1237 C   0  0  0  0  0  0  0  0  0  0  0  0
   -4.9666   -0.3436  -20.7444 C   0  0  0  0  0  0  0  0  0  0  0  0
   -6.6750   -2.0981  -21.6122 C   0  0  0  0  0  0  0  0  0  0  0  0
   -8.7758   -0.5709  -21.6773 O   0  0  0  0  0  0  0  0  0  0  0  0
   -8.0418   -1.7914  -22.1484 C   0  0  0  0  0  0  0  0  0  0  0  0
   -8.6748   -2.7050  -23.1557 N   0  0  0  0  0  0  0  0  0  0  0  0
   -7.9409   -3.9253  -23.6269 C   0  0  0  0  0  0  0  0  0  0  0  0
   -8.5738   -4.8389  -24.6342 C   0  0  0  0  0  0  0  0  0  0  0  0
   -9.9407   -4.5322  -25.1704 C   0  0  0  0  0  0  0  0  0  0  0  0
  -10.6747   -3.3117  -24.6992 C   0  0  0  0  0  0  0  0  0  0  0  0
  -10.0417   -2.3981  -23.6919 C   0  0  0  0  0  0  0  0  0  0  0  0
 12 13  2  0  0  0
 13 11  1  0  0  0
 11  1  1  0  0  0
  1  2  2  0  0  0
  2  3  1  0  0  0
  3  4  2  0  0  0
  4  5  1  0  0  0
  5  6  2  0  0  0
  6  7  1  0  0  0
  7  8  2  0  0  0
  8  9  1  0  0  0
  9 10  2  0  0  0
 13 14  1  0  0  0
 14 15  1  0  0  0
 15 16  1  0  0  0
 16 17  1  0  0  0
 17 18  1  0  0  0
 18 19  1  0  0  0
 10  1  1  0  0  0
 19 14  1  0  0  0
 10  5  1  0  0  0
M  END
> <minimizedAffinity>
-6.38828

> <CNNscore>
0.6596565843

> <CNNaffinity>
4.7303781509

> <CNN_VS>
3.1204249859

> <CNNaffinity_variance>
0.2933295667

$$$$



 19 21  0  0  0  0  0  0  0  0999 V2000
  -12.0578    2.9214  -23.0960 C   0  0  0  0  0  0  0  0  0  0  0  0
  -13.2301    3.2702  -22.2278 C   0  0  0  0  0  0  0  0  0  0  0  0
  -14.0034    4.5300  -22.4825 N   0  0  0  0  0  0  0  0  0  0  0  0
  -13.6044    5.4410  -23.6053 C   0  0  0  0  0  0  0  0  0  0  0  0
  -12.4319    5.0922  -24.4736 C   0  0  0  0  0  0  0  0  0  0  0  0
  -12.0329    6.0032  -25.5964 C   0  0  0  0  0  0  0  0  0  0  0  0
  -10.8605    5.6543  -26.4646 C   0  0  0  0  0  0  0  0  0  0  0  0
  -10.0872    4.3945  -26.2100 C   0  0  0  0  0  0  0  0  0  0  0  0
  -10.4863    3.4835  -25.0871 C   0  0  0  0  0  0  0  0  0  0  0  0
  -11.6586    3.8324  -24.2189 C   0  0  0  0  0  0  0  0  0  0  0  0
  -11.2844    1.6616  -22.8414 C   0  0  0  0  0  0  0  0  0  0  0  0
  -13.1203    0.2750  -24.0486 O   0  0  0  0  0  0  0  0  0  0  0  0
  -11.7689    0.3577  -23.4029 C   0  0  0  0  0  0  0  0  0  0  0  0
  -10.9019   -0.8635  -23.3188 N   0  0  0  0  0  0  0  0  0  0  0  0
   -9.5505   -0.7808  -22.6731 C   0  0  0  0  0  0  0  0  0  0  0  0
   -8.6835   -2.0020  -22.5890 C   0  0  0  0  0  0  0  0  0  0  0  0
   -9.1679   -3.3058  -23.1505 C   0  0  0  0  0  0  0  0  0  0  0  0
  -10.5194   -3.3885  -23.7962 C   0  0  0  0  0  0  0  0  0  0  0  0
  -11.3864   -2.1673  -23.8803 C   0  0  0  0  0  0  0  0  0  0  0  0
 12 13  2  0  0  0
 13 11  1  0  0  0
 11  1  1  0  0  0
  1  2  2  0  0  0
  2  3  1  0  0  0
  3  4  2  0  0  0
  4  5  1  0  0  0
  5  6  2  0  0  0
  6  7  1  0  0  0
  7  8  2  0  0  0
  8  9  1  0  0  0
  9 10  2  0  0  0
 13 14  1  0  0  0
 14 15  1  0  0  0
 15 16  1  0  0  0
 16 17  1  0  0  0
 17 18  1  0  0  0
 18 19  1  0  0  0
 10  1  1  0  0  0
 19 14  1  0  0  0
 10  5  1  0  0  0
M  END
> <minimizedAffinity>
-5.64783

> <CNNscore>
0.5761252046

> <CNNaffinity>
4.5025272369

> <CNN_VS>
2.5940194130

> <CNNaffinity_variance>
0.2858202755

$$$$



 19 21  0  0  0  0  0  0  0  0999 V2000
   -6.4416   -0.4372  -20.7745 C   0  0  0  0  0  0  0  0  0  0  0  0
   -6.9860   -0.9409  -19.4707 C   0  0  0  0  0  0  0  0  0  0  0  0
   -6.2683   -0.6343  -18.1897 N   0  0  0  0  0  0  0  0  0  0  0  0
   -5.0062    0.1761  -18.2125 C   0  0  0  0  0  0  0  0  0  0  0  0
   -4.4618    0.6798  -19.5164 C   0  0  0  0  0  0  0  0  0  0  0  0
   -3.1998    1.4902  -19.5392 C   0  0  0  0  0  0  0  0  0  0  0  0
   -2.6555    1.9939  -20.8430 C   0  0  0  0  0  0  0  0  0  0  0  0
   -3.3732    1.6872  -22.1240 C   0  0  0  0  0  0  0  0  0  0  0  0
   -4.6352    0.8769  -22.1012 C   0  0  0  0  0  0  0  0  0  0  0  0
   -5.1795    0.3732  -20.7974 C   0  0  0  0  0  0  0  0  0  0  0  0
   -7.1593   -0.7438  -22.0554 C   0  0  0  0  0  0  0  0  0  0  0  0
   -9.2838    0.7116  -21.7113 O   0  0  0  0  0  0  0  0  0  0  0  0
   -8.1761    0.2183  -22.5943 C   0  0  0  0  0  0  0  0  0  0  0  0
   -8.0852    0.6872  -24.0163 N   0  0  0  0  0  0  0  0  0  0  0  0
   -6.9776    0.1939  -24.8993 C   0  0  0  0  0  0  0  0  0  0  0  0
   -6.8867    0.6627  -26.3213 C   0  0  0  0  0  0  0  0  0  0  0  0
   -7.9034    1.6249  -26.8602 C   0  0  0  0  0  0  0  0  0  0  0  0
   -9.0111    2.1182  -25.9771 C   0  0  0  0  0  0  0  0  0  0  0  0
   -9.1020    1.6494  -24.5552 C   0  0  0  0  0  0  0  0  0  0  0  0
 12 13  2  0  0  0
 13 11  1  0  0  0
 11  1  1  0  0  0
  1  2  2  0  0  0
  2  3  1  0  0  0
  3  4  2  0  0  0
  4  5  1  0  0  0
  5  6  2  0  0  0
  6  7  1  0  0  0
  7  8  2  0  0  0
  8  9  1  0  0  0
  9 10  2  0  0  0
 13 14  1  0  0  0
 14 15  1  0  0  0
 15 16  1  0  0  0
 16 17  1  0  0  0
 17 18  1  0  0  0
 18 19  1  0  0  0
 10  1  1  0  0  0
 19 14  1  0  0  0
 10  5  1  0  0  0
M  END
> <minimizedAffinity>
-5.60981

> <CNNscore>
0.5264037848

> <CNNaffinity>
4.4656462669

> <CNN_VS>
2.3507330418

> <CNNaffinity_variance>
0.0484046675

$$$$



 19 21  0  0  0  0  0  0  0  0999 V2000
   -5.3618   -1.1447  -22.4399 C   0  0  0  0  0  0  0  0  0  0  0  0
   -5.0369   -1.1088  -23.9038 C   0  0  0  0  0  0  0  0  0  0  0  0
   -3.9900   -0.1650  -24.4168 N   0  0  0  0  0  0  0  0  0  0  0  0
   -3.2681    0.7431  -23.4659 C   0  0  0  0  0  0  0  0  0  0  0  0
   -3.5930    0.7073  -22.0019 C   0  0  0  0  0  0  0  0  0  0  0  0
   -2.8711    1.6153  -21.0510 C   0  0  0  0  0  0  0  0  0  0  0  0
   -3.1961    1.5794  -19.5871 C   0  0  0  0  0  0  0  0  0  0  0  0
   -4.2429    0.6356  -19.0741 C   0  0  0  0  0  0  0  0  0  0  0  0
   -4.9648   -0.2725  -20.0250 C   0  0  0  0  0  0  0  0  0  0  0  0
   -4.6399   -0.2366  -21.4889 C   0  0  0  0  0  0  0  0  0  0  0  0
   -6.4087   -2.0885  -21.9269 C   0  0  0  0  0  0  0  0  0  0  0  0
   -5.1198   -3.7574  -20.4090 O   0  0  0  0  0  0  0  0  0  0  0  0
   -6.0374   -3.4965  -21.5667 C   0  0  0  0  0  0  0  0  0  0  0  0
   -6.5837   -4.6436  -22.3640 N   0  0  0  0  0  0  0  0  0  0  0  0
   -7.5012   -4.3827  -23.5215 C   0  0  0  0  0  0  0  0  0  0  0  0
   -8.0475   -5.5299  -24.3189 C   0  0  0  0  0  0  0  0  0  0  0  0
   -7.6762   -6.9378  -23.9587 C   0  0  0  0  0  0  0  0  0  0  0  0
   -6.7586   -7.1987  -22.8010 C   0  0  0  0  0  0  0  0  0  0  0  0
   -6.2123   -6.0516  -22.0037 C   0  0  0  0  0  0  0  0  0  0  0  0
 12 13  2  0  0  0
 13 11  1  0  0  0
 11  1  1  0  0  0
  1  2  2  0  0  0
  2  3  1  0  0  0
  3  4  2  0  0  0
  4  5  1  0  0  0
  5  6  2  0  0  0
  6  7  1  0  0  0
  7  8  2  0  0  0
  8  9  1  0  0  0
  9 10  2  0  0  0
 13 14  1  0  0  0
 14 15  1  0  0  0
 15 16  1  0  0  0
 16 17  1  0  0  0
 17 18  1  0  0  0
 18 19  1  0  0  0
 10  1  1  0  0  0
 19 14  1  0  0  0
 10  5  1  0  0  0
M  END
> <minimizedAffinity>
-5.82401

> <CNNscore>
0.5201615691

> <CNNaffinity>
4.4114637375

> <CNN_VS>
2.2946739197

> <CNNaffinity_variance>
0.0945269614

$$$$



 19 21  0  0  0  0  0  0  0  0999 V2000
   -5.7903   -1.0082  -21.0608 C   0  0  0  0  0  0  0  0  0  0  0  0
   -6.6128   -1.3680  -19.8592 C   0  0  0  0  0  0  0  0  0  0  0  0
   -6.2890   -0.7701  -18.5222 N   0  0  0  0  0  0  0  0  0  0  0  0
   -5.1426    0.1877  -18.3868 C   0  0  0  0  0  0  0  0  0  0  0  0
   -4.3200    0.5476  -19.5884 C   0  0  0  0  0  0  0  0  0  0  0  0
   -3.1736    1.5054  -19.4530 C   0  0  0  0  0  0  0  0  0  0  0  0
   -2.3511    1.8653  -20.6546 C   0  0  0  0  0  0  0  0  0  0  0  0
   -2.6749    1.2673  -21.9916 C   0  0  0  0  0  0  0  0  0  0  0  0
   -3.8213    0.3095  -22.1270 C   0  0  0  0  0  0  0  0  0  0  0  0
   -4.6438   -0.0503  -20.9254 C   0  0  0  0  0  0  0  0  0  0  0  0
   -6.1142   -1.6061  -22.3978 C   0  0  0  0  0  0  0  0  0  0  0  0
   -6.8884   -4.0861  -22.3755 O   0  0  0  0  0  0  0  0  0  0  0  0
   -7.2064   -2.6271  -22.5181 C   0  0  0  0  0  0  0  0  0  0  0  0
   -8.6168   -2.1892  -22.7809 N   0  0  0  0  0  0  0  0  0  0  0  0
   -8.9349   -0.7303  -22.9235 C   0  0  0  0  0  0  0  0  0  0  0  0
  -10.3452   -0.2923  -23.1864 C   0  0  0  0  0  0  0  0  0  0  0  0
  -11.4375   -1.3133  -23.3066 C   0  0  0  0  0  0  0  0  0  0  0  0
  -11.1195   -2.7723  -23.1640 C   0  0  0  0  0  0  0  0  0  0  0  0
   -9.7091   -3.2102  -22.9012 C   0  0  0  0  0  0  0  0  0  0  0  0
 12 13  2  0  0  0
 13 11  1  0  0  0
 11  1  1  0  0  0
  1  2  2  0  0  0
  2  3  1  0  0  0
  3  4  2  0  0  0
  4  5  1  0  0  0
  5  6  2  0  0  0
  6  7  1  0  0  0
  7  8  2  0  0  0
  8  9  1  0  0  0
  9 10  2  0  0  0
 13 14  1  0  0  0
 14 15  1  0  0  0
 15 16  1  0  0  0
 16 17  1  0  0  0
 17 18  1  0  0  0
 18 19  1  0  0  0
 10  1  1  0  0  0
 19 14  1  0  0  0
 10  5  1  0  0  0
M  END
> <minimizedAffinity>
-6.17497

> <CNNscore>
0.5017076135

> <CNNaffinity>
4.6694421768

> <CNN_VS>
2.3426947594

> <CNNaffinity_variance>
0.2411048114

$$$$



 19 21  0  0  0  0  0  0  0  0999 V2000
   -6.8445   -0.8327  -20.2867 C   0  0  0  0  0  0  0  0  0  0  0  0
   -6.7705   -1.3914  -18.8966 C   0  0  0  0  0  0  0  0  0  0  0  0
   -5.7354   -0.8823  -17.9378 N   0  0  0  0  0  0  0  0  0  0  0  0
   -4.7743    0.1855  -18.3690 C   0  0  0  0  0  0  0  0  0  0  0  0
   -4.8482    0.7443  -19.7591 C   0  0  0  0  0  0  0  0  0  0  0  0
   -3.8871    1.8121  -20.1903 C   0  0  0  0  0  0  0  0  0  0  0  0
   -3.9611    2.3708  -21.5804 C   0  0  0  0  0  0  0  0  0  0  0  0
   -4.9962    1.8617  -22.5392 C   0  0  0  0  0  0  0  0  0  0  0  0
   -5.9573    0.7939  -22.1080 C   0  0  0  0  0  0  0  0  0  0  0  0
   -5.8833    0.2352  -20.7179 C   0  0  0  0  0  0  0  0  0  0  0  0
   -7.8796   -1.3418  -21.2455 C   0  0  0  0  0  0  0  0  0  0  0  0
   -6.1896   -3.1035  -22.1345 O   0  0  0  0  0  0  0  0  0  0  0  0
   -7.5542   -2.4813  -22.1650 C   0  0  0  0  0  0  0  0  0  0  0  0
   -8.5933   -2.9986  -23.1151 N   0  0  0  0  0  0  0  0  0  0  0  0
   -9.9578   -2.3764  -23.1456 C   0  0  0  0  0  0  0  0  0  0  0  0
  -10.9969   -2.8938  -24.0957 C   0  0  0  0  0  0  0  0  0  0  0  0
  -10.6715   -4.0333  -25.0152 C   0  0  0  0  0  0  0  0  0  0  0  0
   -9.3070   -4.6555  -24.9847 C   0  0  0  0  0  0  0  0  0  0  0  0
   -8.2679   -4.1382  -24.0346 C   0  0  0  0  0  0  0  0  0  0  0  0
 12 13  2  0  0  0
 13 11  1  0  0  0
 11  1  1  0  0  0
  1  2  2  0  0  0
  2  3  1  0  0  0
  3  4  2  0  0  0
  4  5  1  0  0  0
  5  6  2  0  0  0
  6  7  1  0  0  0
  7  8  2  0  0  0
  8  9  1  0  0  0
  9 10  2  0  0  0
 13 14  1  0  0  0
 14 15  1  0  0  0
 15 16  1  0  0  0
 16 17  1  0  0  0
 17 18  1  0  0  0
 18 19  1  0  0  0
 10  1  1  0  0  0
 19 14  1  0  0  0
 10  5  1  0  0  0
M  END
> <minimizedAffinity>
-6.29223

> <CNNscore>
0.4669872820

> <CNNaffinity>
4.5626611710

> <CNN_VS>
2.1307046413

> <CNNaffinity_variance>
0.2378470600

$$$$



 19 21  0  0  0  0  0  0  0  0999 V2000
   -6.9024   -0.1645  -20.6668 C   0  0  0  0  0  0  0  0  0  0  0  0
   -7.1935   -1.1154  -19.5438 C   0  0  0  0  0  0  0  0  0  0  0  0
   -6.2478   -1.2184  -18.3841 N   0  0  0  0  0  0  0  0  0  0  0  0
   -5.0110   -0.3705  -18.3472 C   0  0  0  0  0  0  0  0  0  0  0  0
   -4.7198    0.5804  -19.4702 C   0  0  0  0  0  0  0  0  0  0  0  0
   -3.4830    1.4283  -19.4333 C   0  0  0  0  0  0  0  0  0  0  0  0
   -3.1919    2.3792  -20.5562 C   0  0  0  0  0  0  0  0  0  0  0  0
   -4.1376    2.4822  -21.7160 C   0  0  0  0  0  0  0  0  0  0  0  0
   -5.3744    1.6343  -21.7529 C   0  0  0  0  0  0  0  0  0  0  0  0
   -5.6655    0.6835  -20.6299 C   0  0  0  0  0  0  0  0  0  0  0  0
   -7.8480   -0.0615  -21.8265 C   0  0  0  0  0  0  0  0  0  0  0  0
   -6.4195   -1.0562  -23.7553 O   0  0  0  0  0  0  0  0  0  0  0  0
   -7.7096   -0.9951  -22.9923 C   0  0  0  0  0  0  0  0  0  0  0  0
   -8.8612   -1.8677  -23.3953 N   0  0  0  0  0  0  0  0  0  0  0  0
  -10.1513   -1.8067  -22.6324 C   0  0  0  0  0  0  0  0  0  0  0  0
  -11.3029   -2.6793  -23.0353 C   0  0  0  0  0  0  0  0  0  0  0  0
  -11.1645   -3.6129  -24.2011 C   0  0  0  0  0  0  0  0  0  0  0  0
   -9.8744   -3.6740  -24.9640 C   0  0  0  0  0  0  0  0  0  0  0  0
   -8.7228   -2.8014  -24.5611 C   0  0  0  0  0  0  0  0  0  0  0  0
 12 13  2  0  0  0
 13 11  1  0  0  0
 11  1  1  0  0  0
  1  2  2  0  0  0
  2  3  1  0  0  0
  3  4  2  0  0  0
  4  5  1  0  0  0
  5  6  2  0  0  0
  6  7  1  0  0  0
  7  8  2  0  0  0
  8  9  1  0  0  0
  9 10  2  0  0  0
 13 14  1  0  0  0
 14 15  1  0  0  0
 15 16  1  0  0  0
 16 17  1  0  0  0
 17 18  1  0  0  0
 18 19  1  0  0  0
 10  1  1  0  0  0
 19 14  1  0  0  0
 10  5  1  0  0  0
M  END
> <minimizedAffinity>
-6.23451

> <CNNscore>
0.4623461962

> <CNNaffinity>
4.5702662468

> <CNN_VS>
2.1130452156

> <CNNaffinity_variance>
0.1124369651

$$$$



 19 21  0  0  0  0  0  0  0  0999 V2000
   -5.6512   -0.6237  -20.3206 C   0  0  0  0  0  0  0  0  0  0  0  0
   -5.5604   -0.1343  -18.9056 C   0  0  0  0  0  0  0  0  0  0  0  0
   -4.4955    0.8488  -18.5189 N   0  0  0  0  0  0  0  0  0  0  0  0
   -3.5216    1.3426  -19.5473 C   0  0  0  0  0  0  0  0  0  0  0  0
   -3.6124    0.8533  -20.9623 C   0  0  0  0  0  0  0  0  0  0  0  0
   -2.6384    1.3471  -21.9906 C   0  0  0  0  0  0  0  0  0  0  0  0
   -2.7292    0.8577  -23.4056 C   0  0  0  0  0  0  0  0  0  0  0  0
   -3.7941   -0.1255  -23.7923 C   0  0  0  0  0  0  0  0  0  0  0  0
   -4.7680   -0.6193  -22.7640 C   0  0  0  0  0  0  0  0  0  0  0  0
   -4.6772   -0.1299  -21.3490 C   0  0  0  0  0  0  0  0  0  0  0  0
   -6.7160   -1.6069  -20.7073 C   0  0  0  0  0  0  0  0  0  0  0  0
   -8.5174    0.2163  -21.1325 O   0  0  0  0  0  0  0  0  0  0  0  0
   -7.9436   -1.1373  -21.4300 C   0  0  0  0  0  0  0  0  0  0  0  0
   -8.5975   -2.0214  -22.4503 N   0  0  0  0  0  0  0  0  0  0  0  0
   -8.0238   -3.3750  -22.7477 C   0  0  0  0  0  0  0  0  0  0  0  0
   -8.6777   -4.2590  -23.7680 C   0  0  0  0  0  0  0  0  0  0  0  0
   -9.9053   -3.7894  -24.4907 C   0  0  0  0  0  0  0  0  0  0  0  0
  -10.4791   -2.4358  -24.1933 C   0  0  0  0  0  0  0  0  0  0  0  0
   -9.8252   -1.5517  -23.1730 C   0  0  0  0  0  0  0  0  0  0  0  0
 12 13  2  0  0  0
 13 11  1  0  0  0
 11  1  1  0  0  0
  1  2  2  0  0  0
  2  3  1  0  0  0
  3  4  2  0  0  0
  4  5  1  0  0  0
  5  6  2  0  0  0
  6  7  1  0  0  0
  7  8  2  0  0  0
  8  9  1  0  0  0
  9 10  2  0  0  0
 13 14  1  0  0  0
 14 15  1  0  0  0
 15 16  1  0  0  0
 16 17  1  0  0  0
 17 18  1  0  0  0
 18 19  1  0  0  0
 10  1  1  0  0  0
 19 14  1  0  0  0
 10  5  1  0  0  0
M  END
> <minimizedAffinity>
-5.80608

> <CNNscore>
0.4566919804

> <CNNaffinity>
4.4189567566

> <CNN_VS>
2.0181021690

> <CNNaffinity_variance>
0.2772802413

$$$$
