


 39 44  0  0  0  0  0  0  0  0999 V2000
   -7.2658   -1.1635  -24.2008 N   0  0  0  0  0  0  0  0  0  0  0  0
   -7.6931    0.2728  -24.2678 C   0  0  0  0  0  0  0  0  0  0  0  0
   -9.1297    0.6392  -24.0400 C   0  0  0  0  0  0  0  0  0  0  0  0
  -10.5233    1.1549  -23.8353 C   0  0  0  0  0  0  0  0  0  0  0  0
  -11.6402    0.7457  -23.5877 O   0  0  0  0  0  0  0  0  0  0  0  0
  -10.4934    2.6464  -23.9922 N   0  0  0  0  0  0  0  0  0  0  0  0
   -9.0813    3.0525  -24.2939 C   0  0  0  0  0  0  0  0  0  0  0  0
   -8.2385    1.8120  -24.3234 C   0  0  0  0  0  0  0  0  0  0  0  0
  -10.1390   -0.4306  -23.7452 C   0  0  0  0  0  0  0  0  0  0  0  0
  -11.5756   -0.0642  -23.5174 C   0  0  0  0  0  0  0  0  0  0  0  0
  -12.5848   -1.1340  -23.2227 C   0  0  0  0  0  0  0  0  0  0  0  0
  -14.0214   -0.7676  -22.9949 Cl  0  0  0  0  0  0  0  0  0  0  0  0
  -12.1574   -2.5703  -23.1557 C   0  0  0  0  0  0  0  0  0  0  0  0
  -10.7208   -2.9367  -23.3835 C   0  0  0  0  0  0  0  0  0  0  0  0
   -9.7116   -1.8669  -23.6783 C   0  0  0  0  0  0  0  0  0  0  0  0
   -8.2750   -2.2333  -23.9061 C   0  0  0  0  0  0  0  0  0  0  0  0
   -7.8476   -3.6696  -23.8391 O   0  0  0  0  0  0  0  0  0  0  0  0
  -11.6692    3.5696  -23.8690 C   0  0  0  0  0  0  0  0  0  0  0  0
  -12.4599    3.6113  -22.5950 C   0  0  0  0  0  0  0  0  0  0  0  0
  -13.6357    4.5345  -22.4719 N   0  0  0  0  0  0  0  0  0  0  0  0
  -14.0207    5.4161  -23.6227 C   0  0  0  0  0  0  0  0  0  0  0  0
  -13.2300    5.3745  -24.8967 C   0  0  0  0  0  0  0  0  0  0  0  0
  -13.6151    6.2562  -26.0476 C   0  0  0  0  0  0  0  0  0  0  0  0
  -12.8243    6.2145  -27.3216 C   0  0  0  0  0  0  0  0  0  0  0  0
  -11.6485    5.2913  -27.4447 C   0  0  0  0  0  0  0  0  0  0  0  0
  -11.2635    4.4097  -26.2939 C   0  0  0  0  0  0  0  0  0  0  0  0
  -12.0542    4.4513  -25.0199 C   0  0  0  0  0  0  0  0  0  0  0  0
   -5.8291   -1.5299  -24.4286 C   0  0  0  0  0  0  0  0  0  0  0  0
   -3.8247   -3.5683  -27.1813 C   0  0  0  0  0  0  0  0  0  0  0  0
   -4.2615   -3.0400  -25.8471 N   0  0  0  0  0  0  0  0  0  0  0  0
   -5.3923   -2.0581  -25.7628 C   0  0  0  0  0  0  0  0  0  0  0  0
   -6.0864   -1.6045  -27.0129 O   0  0  0  0  0  0  0  0  0  0  0  0
   -3.8060   -3.3378  -25.0267 H   0  0  0  0  0  0  0  0  0  0  0  0
   -6.7634    1.7545  -24.5897 C   0  0  0  0  0  0  0  0  0  0  0  0
   -5.8083    2.4647  -23.6769 N   0  0  0  0  0  0  0  0  0  0  0  0
   -5.2627    3.8478  -23.8753 C   0  0  0  0  0  0  0  0  0  0  0  0
   -4.3482    4.1545  -22.7266 C   0  0  0  0  0  0  0  0  0  0  0  0
   -4.3285    2.9609  -21.8183 C   0  0  0  0  0  0  0  0  0  0  0  0
   -5.2309    1.9166  -22.4057 N   0  0  0  0  0  0  0  0  0  0  0  0
 29 30  1  0  0  0
 30 31  1  0  0  0
 31 32  2  0  0  0
 31 28  1  0  0  0
 28  1  1  0  0  0
  1  2  1  0  0  0
  3  2  1  0  0  0
  3  4  1  0  0  0
  4  5  2  0  0  0
  4  6  1  0  0  0
  6 18  1  0  0  0
 18 19  2  0  0  0
 19 20  1  0  0  0
 20 21  2  0  0  0
 21 22  1  0  0  0
 22 23  2  0  0  0
 23 24  1  0  0  0
 24 25  2  0  0  0
 25 26  1  0  0  0
 26 27  2  0  0  0
  6  7  1  0  0  0
  7  8  1  0  0  0
  8 34  1  0  0  0
 34 35  1  0  0  0
 35 36  1  0  0  0
 36 37  2  0  0  0
 37 38  1  0  0  0
 38 39  2  0  0  0
  3  9  1  0  0  0
  9 10  2  0  0  0
 10 11  1  0  0  0
 11 12  1  0  0  0
 11 13  2  0  0  0
 13 14  1  0  0  0
 14 15  2  0  0  0
 15 16  1  0  0  0
 16 17  2  0  0  0
 16  1  1  0  0  0
  8  3  1  0  0  0
 39 35  1  0  0  0
 15  9  1  0  0  0
 27 18  1  0  0  0
 27 22  1  0  0  0
 30 33  1  0  0  0
M  END
> <minimizedAffinity>
-7.03091

> <CNNscore>
0.7497355342

> <CNNaffinity>
6.9572968483

> <CNN_VS>
5.2161326408

> <CNNaffinity_variance>
0.0941687152

$$$$



 39 44  0  0  0  0  0  0  0  0999 V2000
   -6.9767   -1.1327  -22.3828 N   0  0  0  0  0  0  0  0  0  0  0  0
   -7.0711    0.1790  -23.1042 C   0  0  0  0  0  0  0  0  0  0  0  0
   -8.3976    0.6626  -23.6106 C   0  0  0  0  0  0  0  0  0  0  0  0
   -9.6481    1.2728  -24.1708 C   0  0  0  0  0  0  0  0  0  0  0  0
  -10.8365    1.0380  -24.2660 O   0  0  0  0  0  0  0  0  0  0  0  0
   -9.2815    2.5818  -24.8049 N   0  0  0  0  0  0  0  0  0  0  0  0
   -7.8043    2.7806  -24.6367 C   0  0  0  0  0  0  0  0  0  0  0  0
   -7.2580    1.5946  -23.8986 C   0  0  0  0  0  0  0  0  0  0  0  0
   -9.6297   -0.1654  -23.3956 C   0  0  0  0  0  0  0  0  0  0  0  0
  -10.9562    0.3182  -23.9020 C   0  0  0  0  0  0  0  0  0  0  0  0
  -12.1883   -0.5099  -23.6870 C   0  0  0  0  0  0  0  0  0  0  0  0
  -13.5148   -0.0263  -24.1934 Cl  0  0  0  0  0  0  0  0  0  0  0  0
  -12.0938   -1.8216  -22.9655 C   0  0  0  0  0  0  0  0  0  0  0  0
  -10.7673   -2.3053  -22.4591 C   0  0  0  0  0  0  0  0  0  0  0  0
   -9.5353   -1.4772  -22.6742 C   0  0  0  0  0  0  0  0  0  0  0  0
   -8.2087   -1.9608  -22.1677 C   0  0  0  0  0  0  0  0  0  0  0  0
   -8.1143   -3.2725  -21.4463 O   0  0  0  0  0  0  0  0  0  0  0  0
  -10.2262    3.5261  -25.4875 C   0  0  0  0  0  0  0  0  0  0  0  0
  -10.0745    3.8104  -26.9524 C   0  0  0  0  0  0  0  0  0  0  0  0
  -11.0192    4.7547  -27.6350 N   0  0  0  0  0  0  0  0  0  0  0  0
  -12.1156    5.4146  -26.8525 C   0  0  0  0  0  0  0  0  0  0  0  0
  -12.2673    5.1303  -25.3875 C   0  0  0  0  0  0  0  0  0  0  0  0
  -13.3639    5.7903  -24.6051 C   0  0  0  0  0  0  0  0  0  0  0  0
  -13.5155    5.5059  -23.1401 C   0  0  0  0  0  0  0  0  0  0  0  0
  -12.5708    4.5616  -22.4576 C   0  0  0  0  0  0  0  0  0  0  0  0
  -11.4744    3.9017  -23.2400 C   0  0  0  0  0  0  0  0  0  0  0  0
  -11.3226    4.1860  -24.7050 C   0  0  0  0  0  0  0  0  0  0  0  0
   -5.6501   -1.6163  -21.8764 C   0  0  0  0  0  0  0  0  0  0  0  0
   -5.5123   -5.5820  -21.8078 C   0  0  0  0  0  0  0  0  0  0  0  0
   -5.6549   -4.1772  -22.3142 N   0  0  0  0  0  0  0  0  0  0  0  0
   -5.5074   -3.0211  -21.3700 C   0  0  0  0  0  0  0  0  0  0  0  0
   -5.2173   -3.2696  -19.9194 O   0  0  0  0  0  0  0  0  0  0  0  0
   -5.8453   -4.0141  -23.2662 H   0  0  0  0  0  0  0  0  0  0  0  0
   -5.8239    1.3784  -23.5157 C   0  0  0  0  0  0  0  0  0  0  0  0
   -4.9085    2.5539  -23.3423 N   0  0  0  0  0  0  0  0  0  0  0  0
   -3.5690    2.7318  -23.9935 C   0  0  0  0  0  0  0  0  0  0  0  0
   -3.0044    4.0457  -23.5410 C   0  0  0  0  0  0  0  0  0  0  0  0
   -3.9950    4.6798  -22.6100 C   0  0  0  0  0  0  0  0  0  0  0  0
   -5.1717    3.7578  -22.4872 N   0  0  0  0  0  0  0  0  0  0  0  0
 29 30  1  0  0  0
 30 31  1  0  0  0
 31 32  2  0  0  0
 31 28  1  0  0  0
 28  1  1  0  0  0
  1  2  1  0  0  0
  3  2  1  0  0  0
  3  4  1  0  0  0
  4  5  2  0  0  0
  4  6  1  0  0  0
  6 18  1  0  0  0
 18 19  2  0  0  0
 19 20  1  0  0  0
 20 21  2  0  0  0
 21 22  1  0  0  0
 22 23  2  0  0  0
 23 24  1  0  0  0
 24 25  2  0  0  0
 25 26  1  0  0  0
 26 27  2  0  0  0
  6  7  1  0  0  0
  7  8  1  0  0  0
  8 34  1  0  0  0
 34 35  1  0  0  0
 35 36  1  0  0  0
 36 37  2  0  0  0
 37 38  1  0  0  0
 38 39  2  0  0  0
  3  9  1  0  0  0
  9 10  2  0  0  0
 10 11  1  0  0  0
 11 12  1  0  0  0
 11 13  2  0  0  0
 13 14  1  0  0  0
 14 15  2  0  0  0
 15 16  1  0  0  0
 16 17  2  0  0  0
 16  1  1  0  0  0
  8  3  1  0  0  0
 39 35  1  0  0  0
 15  9  1  0  0  0
 27 18  1  0  0  0
 27 22  1  0  0  0
 30 33  1  0  0  0
M  END
> <minimizedAffinity>
-7.07241

> <CNNscore>
0.3223614693

> <CNNaffinity>
6.5503082275

> <CNN_VS>
2.1115670204

> <CNNaffinity_variance>
0.1100503653

$$$$



 39 44  0  0  0  0  0  0  0  0999 V2000
   -5.9647   -4.1773  -21.7471 N   0  0  0  0  0  0  0  0  0  0  0  0
   -6.4527   -3.6454  -23.0619 C   0  0  0  0  0  0  0  0  0  0  0  0
   -6.4587   -2.1673  -23.3173 C   0  0  0  0  0  0  0  0  0  0  0  0
   -6.5232   -0.7223  -23.7146 C   0  0  0  0  0  0  0  0  0  0  0  0
   -6.2735    0.3786  -23.2652 O   0  0  0  0  0  0  0  0  0  0  0  0
   -7.0723   -0.6488  -25.1086 N   0  0  0  0  0  0  0  0  0  0  0  0
   -7.3472   -2.0485  -25.5728 C   0  0  0  0  0  0  0  0  0  0  0  0
   -6.9680   -2.9869  -24.4658 C   0  0  0  0  0  0  0  0  0  0  0  0
   -5.9766   -1.2211  -22.2578 C   0  0  0  0  0  0  0  0  0  0  0  0
   -5.9826    0.2569  -22.5132 C   0  0  0  0  0  0  0  0  0  0  0  0
   -5.5005    1.2030  -21.4538 C   0  0  0  0  0  0  0  0  0  0  0  0
   -5.5064    2.6811  -21.7091 Cl  0  0  0  0  0  0  0  0  0  0  0  0
   -5.0124    0.6710  -20.1389 C   0  0  0  0  0  0  0  0  0  0  0  0
   -5.0065   -0.8071  -19.8835 C   0  0  0  0  0  0  0  0  0  0  0  0
   -5.4886   -1.7531  -20.9430 C   0  0  0  0  0  0  0  0  0  0  0  0
   -5.4826   -3.2313  -20.6876 C   0  0  0  0  0  0  0  0  0  0  0  0
   -4.9946   -3.7633  -19.3728 O   0  0  0  0  0  0  0  0  0  0  0  0
   -7.3056    0.6042  -25.8994 C   0  0  0  0  0  0  0  0  0  0  0  0
   -8.5982    1.3517  -25.7564 C   0  0  0  0  0  0  0  0  0  0  0  0
   -8.8315    2.6047  -26.5472 N   0  0  0  0  0  0  0  0  0  0  0  0
   -7.7721    3.1104  -27.4810 C   0  0  0  0  0  0  0  0  0  0  0  0
   -6.4794    2.3629  -27.6240 C   0  0  0  0  0  0  0  0  0  0  0  0
   -5.4200    2.8686  -28.5578 C   0  0  0  0  0  0  0  0  0  0  0  0
   -4.1274    2.1211  -28.7007 C   0  0  0  0  0  0  0  0  0  0  0  0
   -3.8941    0.8680  -27.9099 C   0  0  0  0  0  0  0  0  0  0  0  0
   -4.9535    0.3624  -26.9761 C   0  0  0  0  0  0  0  0  0  0  0  0
   -6.2462    1.1098  -26.8332 C   0  0  0  0  0  0  0  0  0  0  0  0
   -5.9587   -5.6555  -21.4918 C   0  0  0  0  0  0  0  0  0  0  0  0
   -3.3763   -7.2787  -24.0307 C   0  0  0  0  0  0  0  0  0  0  0  0
   -3.9742   -6.3454  -23.0200 N   0  0  0  0  0  0  0  0  0  0  0  0
   -5.3608   -6.5888  -22.5024 C   0  0  0  0  0  0  0  0  0  0  0  0
   -6.1497   -7.7655  -22.9956 O   0  0  0  0  0  0  0  0  0  0  0  0
   -3.4565   -5.5731  -22.6963 H   0  0  0  0  0  0  0  0  0  0  0  0
   -7.0786   -4.4824  -24.5010 C   0  0  0  0  0  0  0  0  0  0  0  0
   -7.9682   -5.1451  -25.5106 N   0  0  0  0  0  0  0  0  0  0  0  0
   -8.4386   -4.5427  -26.8013 C   0  0  0  0  0  0  0  0  0  0  0  0
   -9.3047   -5.5518  -27.4953 C   0  0  0  0  0  0  0  0  0  0  0  0
   -9.3695   -6.7778  -26.6335 C   0  0  0  0  0  0  0  0  0  0  0  0
   -8.5435   -6.5264  -25.4070 N   0  0  0  0  0  0  0  0  0  0  0  0
 29 30  1  0  0  0
 30 31  1  0  0  0
 31 32  2  0  0  0
 31 28  1  0  0  0
 28  1  1  0  0  0
  1  2  1  0  0  0
  3  2  1  0  0  0
  3  4  1  0  0  0
  4  5  2  0  0  0
  4  6  1  0  0  0
  6 18  1  0  0  0
 18 19  2  0  0  0
 19 20  1  0  0  0
 20 21  2  0  0  0
 21 22  1  0  0  0
 22 23  2  0  0  0
 23 24  1  0  0  0
 24 25  2  0  0  0
 25 26  1  0  0  0
 26 27  2  0  0  0
  6  7  1  0  0  0
  7  8  1  0  0  0
  8 34  1  0  0  0
 34 35  1  0  0  0
 35 36  1  0  0  0
 36 37  2  0  0  0
 37 38  1  0  0  0
 38 39  2  0  0  0
  3  9  1  0  0  0
  9 10  2  0  0  0
 10 11  1  0  0  0
 11 12  1  0  0  0
 11 13  2  0  0  0
 13 14  1  0  0  0
 14 15  2  0  0  0
 15 16  1  0  0  0
 16 17  2  0  0  0
 16  1  1  0  0  0
  8  3  1  0  0  0
 39 35  1  0  0  0
 15  9  1  0  0  0
 27 18  1  0  0  0
 27 22  1  0  0  0
 30 33  1  0  0  0
M  END
> <minimizedAffinity>
-7.12172

> <CNNscore>
0.3213542998

> <CNNaffinity>
6.5897521973

> <CNN_VS>
2.1176452637

> <CNNaffinity_variance>
0.1619236022

$$$$



 39 44  0  0  0  0  0  0  0  0999 V2000
   -9.5534    2.8699  -24.2313 N   0  0  0  0  0  0  0  0  0  0  0  0
   -8.5792    1.7336  -24.3291 C   0  0  0  0  0  0  0  0  0  0  0  0
   -9.0373    0.3287  -24.0718 C   0  0  0  0  0  0  0  0  0  0  0  0
   -9.3477   -1.1210  -23.8432 C   0  0  0  0  0  0  0  0  0  0  0  0
  -10.2848   -1.8376  -23.5520 O   0  0  0  0  0  0  0  0  0  0  0  0
   -8.0839   -1.9032  -24.0454 N   0  0  0  0  0  0  0  0  0  0  0  0
   -6.9923   -0.9370  -24.3990 C   0  0  0  0  0  0  0  0  0  0  0  0
   -7.5816    0.4424  -24.4153 C   0  0  0  0  0  0  0  0  0  0  0  0
  -10.4698    0.0600  -23.7167 C   0  0  0  0  0  0  0  0  0  0  0  0
  -10.9279   -1.3449  -23.4594 C   0  0  0  0  0  0  0  0  0  0  0  0
  -12.3603   -1.6134  -23.1043 C   0  0  0  0  0  0  0  0  0  0  0  0
  -12.8185   -3.0184  -22.8470 Cl  0  0  0  0  0  0  0  0  0  0  0  0
  -13.3345   -0.4771  -23.0066 C   0  0  0  0  0  0  0  0  0  0  0  0
  -12.8764    0.9278  -23.2639 C   0  0  0  0  0  0  0  0  0  0  0  0
  -11.4440    1.1964  -23.6189 C   0  0  0  0  0  0  0  0  0  0  0  0
  -10.9858    2.6014  -23.8763 C   0  0  0  0  0  0  0  0  0  0  0  0
  -11.9600    3.7377  -23.7785 O   0  0  0  0  0  0  0  0  0  0  0  0
   -7.9373   -3.3904  -23.9167 C   0  0  0  0  0  0  0  0  0  0  0  0
   -7.3122   -3.9788  -22.6866 C   0  0  0  0  0  0  0  0  0  0  0  0
   -7.1657   -5.4661  -22.5579 N   0  0  0  0  0  0  0  0  0  0  0  0
   -7.6442   -6.3649  -23.6592 C   0  0  0  0  0  0  0  0  0  0  0  0
   -8.2693   -5.7765  -24.8893 C   0  0  0  0  0  0  0  0  0  0  0  0
   -8.7479   -6.6755  -25.9907 C   0  0  0  0  0  0  0  0  0  0  0  0
   -9.3730   -6.0870  -27.2207 C   0  0  0  0  0  0  0  0  0  0  0  0
   -9.5196   -4.5998  -27.3494 C   0  0  0  0  0  0  0  0  0  0  0  0
   -9.0410   -3.7009  -26.2481 C   0  0  0  0  0  0  0  0  0  0  0  0
   -8.4159   -4.2893  -25.0180 C   0  0  0  0  0  0  0  0  0  0  0  0
   -9.0952    4.2749  -24.4887 C   0  0  0  0  0  0  0  0  0  0  0  0
  -11.3129    5.4200  -27.5741 C   0  0  0  0  0  0  0  0  0  0  0  0
  -10.5511    4.5449  -26.6235 N   0  0  0  0  0  0  0  0  0  0  0  0
   -9.8570    5.1500  -25.4393 C   0  0  0  0  0  0  0  0  0  0  0  0
   -9.9249    6.6302  -25.2058 O   0  0  0  0  0  0  0  0  0  0  0  0
  -10.5065    3.5735  -26.7767 H   0  0  0  0  0  0  0  0  0  0  0  0
   -6.8445    1.7124  -24.7213 C   0  0  0  0  0  0  0  0  0  0  0  0
   -5.9271    2.3125  -23.6976 N   0  0  0  0  0  0  0  0  0  0  0  0
   -5.4610    1.6499  -22.4351 C   0  0  0  0  0  0  0  0  0  0  0  0
   -4.5605    2.6084  -21.7138 C   0  0  0  0  0  0  0  0  0  0  0  0
   -4.4700    3.8633  -22.5305 C   0  0  0  0  0  0  0  0  0  0  0  0
   -5.3146    3.6804  -23.7565 N   0  0  0  0  0  0  0  0  0  0  0  0
 29 30  1  0  0  0
 30 31  1  0  0  0
 31 32  2  0  0  0
 31 28  1  0  0  0
 28  1  1  0  0  0
  1  2  1  0  0  0
  3  2  1  0  0  0
  3  4  1  0  0  0
  4  5  2  0  0  0
  4  6  1  0  0  0
  6 18  1  0  0  0
 18 19  2  0  0  0
 19 20  1  0  0  0
 20 21  2  0  0  0
 21 22  1  0  0  0
 22 23  2  0  0  0
 23 24  1  0  0  0
 24 25  2  0  0  0
 25 26  1  0  0  0
 26 27  2  0  0  0
  6  7  1  0  0  0
  7  8  1  0  0  0
  8 34  1  0  0  0
 34 35  1  0  0  0
 35 36  1  0  0  0
 36 37  2  0  0  0
 37 38  1  0  0  0
 38 39  2  0  0  0
  3  9  1  0  0  0
  9 10  2  0  0  0
 10 11  1  0  0  0
 11 12  1  0  0  0
 11 13  2  0  0  0
 13 14  1  0  0  0
 14 15  2  0  0  0
 15 16  1  0  0  0
 16 17  2  0  0  0
 16  1  1  0  0  0
  8  3  1  0  0  0
 39 35  1  0  0  0
 15  9  1  0  0  0
 27 18  1  0  0  0
 27 22  1  0  0  0
 30 33  1  0  0  0
M  END
> <minimizedAffinity>
-7.18732

> <CNNscore>
0.2749312222

> <CNNaffinity>
6.5367760658

> <CNN_VS>
1.7971638441

> <CNNaffinity_variance>
0.1260725707

$$$$



 39 44  0  0  0  0  0  0  0  0999 V2000
   -7.5907   -3.9448  -22.6901 N   0  0  0  0  0  0  0  0  0  0  0  0
   -8.7366   -3.1358  -23.2217 C   0  0  0  0  0  0  0  0  0  0  0  0
   -8.7144   -1.6402  -23.1097 C   0  0  0  0  0  0  0  0  0  0  0  0
   -8.8321   -0.1454  -23.0692 C   0  0  0  0  0  0  0  0  0  0  0  0
   -8.2121    0.8271  -22.6867 O   0  0  0  0  0  0  0  0  0  0  0  0
  -10.1342    0.2346  -23.7096 N   0  0  0  0  0  0  0  0  0  0  0  0
  -10.8213   -1.0253  -24.1458 C   0  0  0  0  0  0  0  0  0  0  0  0
   -9.9439   -2.1840  -23.7751 C   0  0  0  0  0  0  0  0  0  0  0  0
   -7.5464   -0.9535  -22.4661 C   0  0  0  0  0  0  0  0  0  0  0  0
   -7.5242    0.5421  -22.3541 C   0  0  0  0  0  0  0  0  0  0  0  0
   -6.3562    1.2288  -21.7106 C   0  0  0  0  0  0  0  0  0  0  0  0
   -6.3340    2.7245  -21.5985 Cl  0  0  0  0  0  0  0  0  0  0  0  0
   -5.2104    0.4198  -21.1790 C   0  0  0  0  0  0  0  0  0  0  0  0
   -5.2325   -1.0758  -21.2910 C   0  0  0  0  0  0  0  0  0  0  0  0
   -6.4005   -1.7625  -21.9346 C   0  0  0  0  0  0  0  0  0  0  0  0
   -6.4227   -3.2582  -22.0466 C   0  0  0  0  0  0  0  0  0  0  0  0
   -5.2768   -4.0671  -21.5150 O   0  0  0  0  0  0  0  0  0  0  0  0
  -10.6573    1.6297  -23.8832 C   0  0  0  0  0  0  0  0  0  0  0  0
  -11.7530    2.1361  -22.9927 C   0  0  0  0  0  0  0  0  0  0  0  0
  -12.2761    3.5312  -23.1663 N   0  0  0  0  0  0  0  0  0  0  0  0
  -11.7035    4.4198  -24.2304 C   0  0  0  0  0  0  0  0  0  0  0  0
  -10.6078    3.9134  -25.1209 C   0  0  0  0  0  0  0  0  0  0  0  0
  -10.0351    4.8022  -26.1851 C   0  0  0  0  0  0  0  0  0  0  0  0
   -8.9394    4.2957  -27.0755 C   0  0  0  0  0  0  0  0  0  0  0  0
   -8.4163    2.9006  -26.9019 C   0  0  0  0  0  0  0  0  0  0  0  0
   -8.9889    2.0119  -25.8378 C   0  0  0  0  0  0  0  0  0  0  0  0
  -10.0847    2.5184  -24.9473 C   0  0  0  0  0  0  0  0  0  0  0  0
   -7.6129   -5.4405  -22.8022 C   0  0  0  0  0  0  0  0  0  0  0  0
   -3.9769   -6.8855  -23.4669 C   0  0  0  0  0  0  0  0  0  0  0  0
   -5.2441   -6.1016  -23.6398 N   0  0  0  0  0  0  0  0  0  0  0  0
   -6.3458   -6.2244  -22.6293 C   0  0  0  0  0  0  0  0  0  0  0  0
   -6.1804   -7.1312  -21.4458 O   0  0  0  0  0  0  0  0  0  0  0  0
   -5.3526   -5.5064  -24.4165 H   0  0  0  0  0  0  0  0  0  0  0  0
  -10.2433   -3.6323  -24.0257 C   0  0  0  0  0  0  0  0  0  0  0  0
  -10.0545   -4.2109  -25.3966 N   0  0  0  0  0  0  0  0  0  0  0  0
  -10.3012   -5.6363  -25.7936 C   0  0  0  0  0  0  0  0  0  0  0  0
   -9.9851   -5.7722  -27.2535 C   0  0  0  0  0  0  0  0  0  0  0  0
   -9.5430   -4.4308  -27.7589 C   0  0  0  0  0  0  0  0  0  0  0  0
   -9.5860   -3.4660  -26.6112 N   0  0  0  0  0  0  0  0  0  0  0  0
 29 30  1  0  0  0
 30 31  1  0  0  0
 31 32  2  0  0  0
 31 28  1  0  0  0
 28  1  1  0  0  0
  1  2  1  0  0  0
  3  2  1  0  0  0
  3  4  1  0  0  0
  4  5  2  0  0  0
  4  6  1  0  0  0
  6 18  1  0  0  0
 18 19  2  0  0  0
 19 20  1  0  0  0
 20 21  2  0  0  0
 21 22  1  0  0  0
 22 23  2  0  0  0
 23 24  1  0  0  0
 24 25  2  0  0  0
 25 26  1  0  0  0
 26 27  2  0  0  0
  6  7  1  0  0  0
  7  8  1  0  0  0
  8 34  1  0  0  0
 34 35  1  0  0  0
 35 36  1  0  0  0
 36 37  2  0  0  0
 37 38  1  0  0  0
 38 39  2  0  0  0
  3  9  1  0  0  0
  9 10  2  0  0  0
 10 11  1  0  0  0
 11 12  1  0  0  0
 11 13  2  0  0  0
 13 14  1  0  0  0
 14 15  2  0  0  0
 15 16  1  0  0  0
 16 17  2  0  0  0
 16  1  1  0  0  0
  8  3  1  0  0  0
 39 35  1  0  0  0
 15  9  1  0  0  0
 27 18  1  0  0  0
 27 22  1  0  0  0
 30 33  1  0  0  0
M  END
> <minimizedAffinity>
-7.52801

> <CNNscore>
0.2722671032

> <CNNaffinity>
6.5521965027

> <CNN_VS>
1.7839475870

> <CNNaffinity_variance>
0.0360019878

$$$$



 39 44  0  0  0  0  0  0  0  0999 V2000
   -5.9459   -4.2317  -21.6589 N   0  0  0  0  0  0  0  0  0  0  0  0
   -6.4591   -3.7230  -22.9733 C   0  0  0  0  0  0  0  0  0  0  0  0
   -6.4878   -2.2486  -23.2474 C   0  0  0  0  0  0  0  0  0  0  0  0
   -6.5765   -0.8098  -23.6621 C   0  0  0  0  0  0  0  0  0  0  0  0
   -6.3348    0.3000  -23.2303 O   0  0  0  0  0  0  0  0  0  0  0  0
   -7.1460   -0.7613  -25.0489 N   0  0  0  0  0  0  0  0  0  0  0  0
   -7.4092   -2.1702  -25.4914 C   0  0  0  0  0  0  0  0  0  0  0  0
   -7.0024   -3.0893  -24.3780 C   0  0  0  0  0  0  0  0  0  0  0  0
   -6.0032   -1.2827  -22.2069 C   0  0  0  0  0  0  0  0  0  0  0  0
   -6.0319    0.1917  -22.4810 C   0  0  0  0  0  0  0  0  0  0  0  0
   -5.5473    1.1574  -21.4406 C   0  0  0  0  0  0  0  0  0  0  0  0
   -5.5760    2.6320  -21.7146 Cl  0  0  0  0  0  0  0  0  0  0  0  0
   -5.0341    0.6487  -20.1261 C   0  0  0  0  0  0  0  0  0  0  0  0
   -5.0055   -0.8257  -19.8521 C   0  0  0  0  0  0  0  0  0  0  0  0
   -5.4900   -1.7914  -20.8925 C   0  0  0  0  0  0  0  0  0  0  0  0
   -5.4614   -3.2660  -20.6184 C   0  0  0  0  0  0  0  0  0  0  0  0
   -4.9482   -3.7747  -19.3040 O   0  0  0  0  0  0  0  0  0  0  0  0
   -7.4064    0.4784  -25.8523 C   0  0  0  0  0  0  0  0  0  0  0  0
   -6.5302    0.8111  -27.0234 C   0  0  0  0  0  0  0  0  0  0  0  0
   -6.7906    2.0508  -27.8267 N   0  0  0  0  0  0  0  0  0  0  0  0
   -7.9274    2.9577  -27.4589 C   0  0  0  0  0  0  0  0  0  0  0  0
   -8.8036    2.6250  -26.2878 C   0  0  0  0  0  0  0  0  0  0  0  0
   -9.9404    3.5320  -25.9200 C   0  0  0  0  0  0  0  0  0  0  0  0
  -10.8166    3.1992  -24.7489 C   0  0  0  0  0  0  0  0  0  0  0  0
  -10.5561    1.9595  -23.9456 C   0  0  0  0  0  0  0  0  0  0  0  0
   -9.4194    1.0526  -24.3134 C   0  0  0  0  0  0  0  0  0  0  0  0
   -8.5432    1.3853  -25.4845 C   0  0  0  0  0  0  0  0  0  0  0  0
   -5.9173   -5.7063  -21.3848 C   0  0  0  0  0  0  0  0  0  0  0  0
   -3.4859   -7.3420  -24.0611 C   0  0  0  0  0  0  0  0  0  0  0  0
   -4.0290   -6.3979  -23.0297 N   0  0  0  0  0  0  0  0  0  0  0  0
   -5.3743   -6.6503  -22.4162 C   0  0  0  0  0  0  0  0  0  0  0  0
   -6.1766   -7.8469  -22.8342 O   0  0  0  0  0  0  0  0  0  0  0  0
   -3.5024   -5.6126  -22.7554 H   0  0  0  0  0  0  0  0  0  0  0  0
   -7.0942   -4.5865  -24.3926 C   0  0  0  0  0  0  0  0  0  0  0  0
   -8.2143   -5.2621  -25.1265 N   0  0  0  0  0  0  0  0  0  0  0  0
   -8.2028   -6.6668  -25.6528 C   0  0  0  0  0  0  0  0  0  0  0  0
   -9.5240   -6.9246  -26.3145 C   0  0  0  0  0  0  0  0  0  0  0  0
  -10.3520   -5.6794  -26.1973 C   0  0  0  0  0  0  0  0  0  0  0  0
   -9.5426   -4.6519  -25.4631 N   0  0  0  0  0  0  0  0  0  0  0  0
 29 30  1  0  0  0
 30 31  1  0  0  0
 31 32  2  0  0  0
 31 28  1  0  0  0
 28  1  1  0  0  0
  1  2  1  0  0  0
  3  2  1  0  0  0
  3  4  1  0  0  0
  4  5  2  0  0  0
  4  6  1  0  0  0
  6 18  1  0  0  0
 18 19  2  0  0  0
 19 20  1  0  0  0
 20 21  2  0  0  0
 21 22  1  0  0  0
 22 23  2  0  0  0
 23 24  1  0  0  0
 24 25  2  0  0  0
 25 26  1  0  0  0
 26 27  2  0  0  0
  6  7  1  0  0  0
  7  8  1  0  0  0
  8 34  1  0  0  0
 34 35  1  0  0  0
 35 36  1  0  0  0
 36 37  2  0  0  0
 37 38  1  0  0  0
 38 39  2  0  0  0
  3  9  1  0  0  0
  9 10  2  0  0  0
 10 11  1  0  0  0
 11 12  1  0  0  0
 11 13  2  0  0  0
 13 14  1  0  0  0
 14 15  2  0  0  0
 15 16  1  0  0  0
 16 17  2  0  0  0
 16  1  1  0  0  0
  8  3  1  0  0  0
 39 35  1  0  0  0
 15  9  1  0  0  0
 27 18  1  0  0  0
 27 22  1  0  0  0
 30 33  1  0  0  0
M  END
> <minimizedAffinity>
-8.13239

> <CNNscore>
0.2707768977

> <CNNaffinity>
6.4423966408

> <CNN_VS>
1.7444521189

> <CNNaffinity_variance>
0.0110571217

$$$$



 39 44  0  0  0  0  0  0  0  0999 V2000
   -7.0542   -1.1244  -21.8104 N   0  0  0  0  0  0  0  0  0  0  0  0
   -7.1617    0.2902  -22.2977 C   0  0  0  0  0  0  0  0  0  0  0  0
   -8.4601    0.7953  -22.8535 C   0  0  0  0  0  0  0  0  0  0  0  0
   -9.6859    1.4380  -23.4316 C   0  0  0  0  0  0  0  0  0  0  0  0
  -10.8412    1.1695  -23.6954 O   0  0  0  0  0  0  0  0  0  0  0  0
   -9.3441    2.8554  -23.7837 N   0  0  0  0  0  0  0  0  0  0  0  0
   -7.9069    3.0889  -23.4232 C   0  0  0  0  0  0  0  0  0  0  0  0
   -7.3606    1.8156  -22.8483 C   0  0  0  0  0  0  0  0  0  0  0  0
   -9.6510   -0.1141  -22.9221 C   0  0  0  0  0  0  0  0  0  0  0  0
  -10.9494    0.3910  -23.4780 C   0  0  0  0  0  0  0  0  0  0  0  0
  -12.1402   -0.5184  -23.5465 C   0  0  0  0  0  0  0  0  0  0  0  0
  -13.4387   -0.0133  -24.1024 Cl  0  0  0  0  0  0  0  0  0  0  0  0
  -12.0327   -1.9329  -23.0592 C   0  0  0  0  0  0  0  0  0  0  0  0
  -10.7344   -2.4381  -22.5034 C   0  0  0  0  0  0  0  0  0  0  0  0
   -9.5435   -1.5287  -22.4348 C   0  0  0  0  0  0  0  0  0  0  0  0
   -8.2450   -2.0338  -21.8790 C   0  0  0  0  0  0  0  0  0  0  0  0
   -8.1375   -3.4484  -21.3917 O   0  0  0  0  0  0  0  0  0  0  0  0
  -10.2758    3.8626  -24.3898 C   0  0  0  0  0  0  0  0  0  0  0  0
  -11.1877    4.6655  -23.5101 C   0  0  0  0  0  0  0  0  0  0  0  0
  -12.1195    5.6727  -24.1162 N   0  0  0  0  0  0  0  0  0  0  0  0
  -12.1394    5.8770  -25.6021 C   0  0  0  0  0  0  0  0  0  0  0  0
  -11.2275    5.0741  -26.4818 C   0  0  0  0  0  0  0  0  0  0  0  0
  -11.2474    5.2785  -27.9678 C   0  0  0  0  0  0  0  0  0  0  0  0
  -10.3355    4.4756  -28.8474 C   0  0  0  0  0  0  0  0  0  0  0  0
   -9.4037    3.4684  -28.2413 C   0  0  0  0  0  0  0  0  0  0  0  0
   -9.3838    3.2641  -26.7554 C   0  0  0  0  0  0  0  0  0  0  0  0
  -10.2957    4.0669  -25.8757 C   0  0  0  0  0  0  0  0  0  0  0  0
   -5.7557   -1.6295  -21.2545 C   0  0  0  0  0  0  0  0  0  0  0  0
   -5.4566   -5.4950  -22.1020 C   0  0  0  0  0  0  0  0  0  0  0  0
   -5.6788   -4.0208  -22.2673 N   0  0  0  0  0  0  0  0  0  0  0  0
   -5.5336   -3.1037  -21.0892 C   0  0  0  0  0  0  0  0  0  0  0  0
   -5.1662   -3.6609  -19.7458 O   0  0  0  0  0  0  0  0  0  0  0  0
   -5.9199   -3.6551  -23.1490 H   0  0  0  0  0  0  0  0  0  0  0  0
   -5.9605    1.6005  -22.3549 C   0  0  0  0  0  0  0  0  0  0  0  0
   -4.8857    2.5907  -22.6927 N   0  0  0  0  0  0  0  0  0  0  0  0
   -4.6345    3.1927  -24.0435 C   0  0  0  0  0  0  0  0  0  0  0  0
   -3.4670    4.1269  -23.9248 C   0  0  0  0  0  0  0  0  0  0  0  0
   -2.9966    4.1023  -22.5007 C   0  0  0  0  0  0  0  0  0  0  0  0
   -3.8734    3.1529  -21.7393 N   0  0  0  0  0  0  0  0  0  0  0  0
 29 30  1  0  0  0
 30 31  1  0  0  0
 31 32  2  0  0  0
 31 28  1  0  0  0
 28  1  1  0  0  0
  1  2  1  0  0  0
  3  2  1  0  0  0
  3  4  1  0  0  0
  4  5  2  0  0  0
  4  6  1  0  0  0
  6 18  1  0  0  0
 18 19  2  0  0  0
 19 20  1  0  0  0
 20 21  2  0  0  0
 21 22  1  0  0  0
 22 23  2  0  0  0
 23 24  1  0  0  0
 24 25  2  0  0  0
 25 26  1  0  0  0
 26 27  2  0  0  0
  6  7  1  0  0  0
  7  8  1  0  0  0
  8 34  1  0  0  0
 34 35  1  0  0  0
 35 36  1  0  0  0
 36 37  2  0  0  0
 37 38  1  0  0  0
 38 39  2  0  0  0
  3  9  1  0  0  0
  9 10  2  0  0  0
 10 11  1  0  0  0
 11 12  1  0  0  0
 11 13  2  0  0  0
 13 14  1  0  0  0
 14 15  2  0  0  0
 15 16  1  0  0  0
 16 17  2  0  0  0
 16  1  1  0  0  0
  8  3  1  0  0  0
 39 35  1  0  0  0
 15  9  1  0  0  0
 27 18  1  0  0  0
 27 22  1  0  0  0
 30 33  1  0  0  0
M  END
> <minimizedAffinity>
-7.11054

> <CNNscore>
0.2613546252

> <CNNaffinity>
6.4429106712

> <CNN_VS>
1.6838845015

> <CNNaffinity_variance>
0.0500812344

$$$$



 39 44  0  0  0  0  0  0  0  0999 V2000
  -10.6881    3.5942  -24.0438 N   0  0  0  0  0  0  0  0  0  0  0  0
   -9.4114    2.8111  -23.9605 C   0  0  0  0  0  0  0  0  0  0  0  0
   -9.4534    1.3323  -23.7126 C   0  0  0  0  0  0  0  0  0  0  0  0
   -9.3386   -0.1436  -23.4709 C   0  0  0  0  0  0  0  0  0  0  0  0
  -10.0455   -1.1139  -23.2832 O   0  0  0  0  0  0  0  0  0  0  0  0
   -7.8816   -0.5004  -23.4652 N   0  0  0  0  0  0  0  0  0  0  0  0
   -7.0960    0.7550  -23.7034 C   0  0  0  0  0  0  0  0  0  0  0  0
   -8.0674    1.8877  -23.8562 C   0  0  0  0  0  0  0  0  0  0  0  0
  -10.7721    0.6366  -23.5480 C   0  0  0  0  0  0  0  0  0  0  0  0
  -10.8141   -0.8421  -23.3001 C   0  0  0  0  0  0  0  0  0  0  0  0
  -12.1328   -1.5378  -23.1355 C   0  0  0  0  0  0  0  0  0  0  0  0
  -12.1749   -3.0166  -22.8876 Cl  0  0  0  0  0  0  0  0  0  0  0  0
  -13.4095   -0.7547  -23.2188 C   0  0  0  0  0  0  0  0  0  0  0  0
  -13.3674    0.7240  -23.4668 C   0  0  0  0  0  0  0  0  0  0  0  0
  -12.0488    1.4197  -23.6313 C   0  0  0  0  0  0  0  0  0  0  0  0
  -12.0067    2.8985  -23.8793 C   0  0  0  0  0  0  0  0  0  0  0  0
  -13.2834    3.6816  -23.9626 O   0  0  0  0  0  0  0  0  0  0  0  0
   -7.3106   -1.8719  -23.2578 C   0  0  0  0  0  0  0  0  0  0  0  0
   -6.7159   -2.2441  -21.9320 C   0  0  0  0  0  0  0  0  0  0  0  0
   -6.1449   -3.6155  -21.7245 N   0  0  0  0  0  0  0  0  0  0  0  0
   -6.1685   -4.6148  -22.8430 C   0  0  0  0  0  0  0  0  0  0  0  0
   -6.7632   -4.2426  -24.1688 C   0  0  0  0  0  0  0  0  0  0  0  0
   -6.7868   -5.2419  -25.2873 C   0  0  0  0  0  0  0  0  0  0  0  0
   -7.3815   -4.8696  -26.6131 C   0  0  0  0  0  0  0  0  0  0  0  0
   -7.9525   -3.4982  -26.8205 C   0  0  0  0  0  0  0  0  0  0  0  0
   -7.9289   -2.4989  -25.7021 C   0  0  0  0  0  0  0  0  0  0  0  0
   -7.3342   -2.8711  -24.3762 C   0  0  0  0  0  0  0  0  0  0  0  0
  -10.6460    5.0730  -24.2918 C   0  0  0  0  0  0  0  0  0  0  0  0
  -10.6821    5.5976  -28.2254 C   0  0  0  0  0  0  0  0  0  0  0  0
  -10.3350    5.0541  -26.8711 N   0  0  0  0  0  0  0  0  0  0  0  0
  -10.9930    5.6165  -25.6461 C   0  0  0  0  0  0  0  0  0  0  0  0
  -11.9980    6.7226  -25.7753 O   0  0  0  0  0  0  0  0  0  0  0  0
   -9.6754    4.3282  -26.7862 H   0  0  0  0  0  0  0  0  0  0  0  0
   -7.7148    3.3236  -24.1085 C   0  0  0  0  0  0  0  0  0  0  0  0
   -6.3292    3.8182  -23.8161 N   0  0  0  0  0  0  0  0  0  0  0  0
   -5.7364    4.0258  -22.4539 C   0  0  0  0  0  0  0  0  0  0  0  0
   -4.3340    4.5280  -22.6303 C   0  0  0  0  0  0  0  0  0  0  0  0
   -4.0601    4.6307  -24.1015 C   0  0  0  0  0  0  0  0  0  0  0  0
   -5.2932    4.1920  -24.8343 N   0  0  0  0  0  0  0  0  0  0  0  0
 29 30  1  0  0  0
 30 31  1  0  0  0
 31 32  2  0  0  0
 31 28  1  0  0  0
 28  1  1  0  0  0
  1  2  1  0  0  0
  3  2  1  0  0  0
  3  4  1  0  0  0
  4  5  2  0  0  0
  4  6  1  0  0  0
  6 18  1  0  0  0
 18 19  2  0  0  0
 19 20  1  0  0  0
 20 21  2  0  0  0
 21 22  1  0  0  0
 22 23  2  0  0  0
 23 24  1  0  0  0
 24 25  2  0  0  0
 25 26  1  0  0  0
 26 27  2  0  0  0
  6  7  1  0  0  0
  7  8  1  0  0  0
  8 34  1  0  0  0
 34 35  1  0  0  0
 35 36  1  0  0  0
 36 37  2  0  0  0
 37 38  1  0  0  0
 38 39  2  0  0  0
  3  9  1  0  0  0
  9 10  2  0  0  0
 10 11  1  0  0  0
 11 12  1  0  0  0
 11 13  2  0  0  0
 13 14  1  0  0  0
 14 15  2  0  0  0
 15 16  1  0  0  0
 16 17  2  0  0  0
 16  1  1  0  0  0
  8  3  1  0  0  0
 39 35  1  0  0  0
 15  9  1  0  0  0
 27 18  1  0  0  0
 27 22  1  0  0  0
 30 33  1  0  0  0
M  END
> <minimizedAffinity>
-6.95668

> <CNNscore>
0.2294312716

> <CNNaffinity>
6.4327630997

> <CNN_VS>
1.4758770466

> <CNNaffinity_variance>
0.3831472993

$$$$



 39 44  0  0  0  0  0  0  0  0999 V2000
   -8.0137    2.4876  -24.3415 N   0  0  0  0  0  0  0  0  0  0  0  0
   -7.2513    1.1985  -24.4237 C   0  0  0  0  0  0  0  0  0  0  0  0
   -7.9501   -0.1038  -24.1674 C   0  0  0  0  0  0  0  0  0  0  0  0
   -8.5108   -1.4760  -23.9379 C   0  0  0  0  0  0  0  0  0  0  0  0
   -9.5617   -2.0168  -23.6557 O   0  0  0  0  0  0  0  0  0  0  0  0
   -7.4004   -2.4674  -24.1221 N   0  0  0  0  0  0  0  0  0  0  0  0
   -6.1532   -1.7079  -24.4655 C   0  0  0  0  0  0  0  0  0  0  0  0
   -6.4930   -0.2472  -24.4935 C   0  0  0  0  0  0  0  0  0  0  0  0
   -9.4114   -0.1169  -23.8289 C   0  0  0  0  0  0  0  0  0  0  0  0
  -10.1102   -1.4192  -23.5726 C   0  0  0  0  0  0  0  0  0  0  0  0
  -11.5714   -1.4323  -23.2341 C   0  0  0  0  0  0  0  0  0  0  0  0
  -12.2703   -2.7346  -22.9778 Cl  0  0  0  0  0  0  0  0  0  0  0  0
  -12.3338   -0.1431  -23.1520 C   0  0  0  0  0  0  0  0  0  0  0  0
  -11.6350    1.1591  -23.4083 C   0  0  0  0  0  0  0  0  0  0  0  0
  -10.1738    1.1722  -23.7467 C   0  0  0  0  0  0  0  0  0  0  0  0
   -9.4749    2.4745  -24.0031 C   0  0  0  0  0  0  0  0  0  0  0  0
  -10.2374    3.7637  -23.9209 O   0  0  0  0  0  0  0  0  0  0  0  0
   -7.5166   -3.9567  -23.9867 C   0  0  0  0  0  0  0  0  0  0  0  0
   -7.0031   -4.6401  -22.7541 C   0  0  0  0  0  0  0  0  0  0  0  0
   -7.1193   -6.1295  -22.6188 N   0  0  0  0  0  0  0  0  0  0  0  0
   -7.7491   -6.9354  -23.7160 C   0  0  0  0  0  0  0  0  0  0  0  0
   -8.2626   -6.2519  -24.9485 C   0  0  0  0  0  0  0  0  0  0  0  0
   -8.8925   -7.0579  -26.0458 C   0  0  0  0  0  0  0  0  0  0  0  0
   -9.4060   -6.3744  -27.2783 C   0  0  0  0  0  0  0  0  0  0  0  0
   -9.2897   -4.8851  -27.4137 C   0  0  0  0  0  0  0  0  0  0  0  0
   -8.6599   -4.0792  -26.3165 C   0  0  0  0  0  0  0  0  0  0  0  0
   -8.1464   -4.7626  -25.0839 C   0  0  0  0  0  0  0  0  0  0  0  0
   -7.3148    3.7900  -24.5978 C   0  0  0  0  0  0  0  0  0  0  0  0
   -4.8405    6.2557  -22.7143 C   0  0  0  0  0  0  0  0  0  0  0  0
   -5.6132    5.5900  -23.8143 N   0  0  0  0  0  0  0  0  0  0  0  0
   -6.5422    4.4557  -23.4979 C   0  0  0  0  0  0  0  0  0  0  0  0
   -6.6985    3.9869  -22.0816 O   0  0  0  0  0  0  0  0  0  0  0  0
   -5.5106    5.8977  -24.7438 H   0  0  0  0  0  0  0  0  0  0  0  0
   -5.5425    0.8735  -24.7947 C   0  0  0  0  0  0  0  0  0  0  0  0
   -4.2259    0.9526  -24.0806 N   0  0  0  0  0  0  0  0  0  0  0  0
   -2.8725    0.9776  -24.7269 C   0  0  0  0  0  0  0  0  0  0  0  0
   -1.8415    1.0611  -23.6405 C   0  0  0  0  0  0  0  0  0  0  0  0
   -2.5577    1.0877  -22.3229 C   0  0  0  0  0  0  0  0  0  0  0  0
   -4.0313    1.0207  -22.5948 N   0  0  0  0  0  0  0  0  0  0  0  0
 29 30  1  0  0  0
 30 31  1  0  0  0
 31 32  2  0  0  0
 31 28  1  0  0  0
 28  1  1  0  0  0
  1  2  1  0  0  0
  3  2  1  0  0  0
  3  4  1  0  0  0
  4  5  2  0  0  0
  4  6  1  0  0  0
  6 18  1  0  0  0
 18 19  2  0  0  0
 19 20  1  0  0  0
 20 21  2  0  0  0
 21 22  1  0  0  0
 22 23  2  0  0  0
 23 24  1  0  0  0
 24 25  2  0  0  0
 25 26  1  0  0  0
 26 27  2  0  0  0
  6  7  1  0  0  0
  7  8  1  0  0  0
  8 34  1  0  0  0
 34 35  1  0  0  0
 35 36  1  0  0  0
 36 37  2  0  0  0
 37 38  1  0  0  0
 38 39  2  0  0  0
  3  9  1  0  0  0
  9 10  2  0  0  0
 10 11  1  0  0  0
 11 12  1  0  0  0
 11 13  2  0  0  0
 13 14  1  0  0  0
 14 15  2  0  0  0
 15 16  1  0  0  0
 16 17  2  0  0  0
 16  1  1  0  0  0
  8  3  1  0  0  0
 39 35  1  0  0  0
 15  9  1  0  0  0
 27 18  1  0  0  0
 27 22  1  0  0  0
 30 33  1  0  0  0
M  END
> <minimizedAffinity>
-6.93848

> <CNNscore>
0.1932144314

> <CNNaffinity>
6.3803124428

> <CNN_VS>
1.2327684164

> <CNNaffinity_variance>
0.1086882800

$$$$
