


 39 44  0  0  0  0  0  0  0  0999 V2000
    9.8269    0.7574   23.7287 N   0  0  0  0  0  0  0  0  0  0  0  0
    8.4603    0.2465   24.0771 C   0  0  0  0  0  0  0  0  0  0  0  0
    8.3126   -0.9784   24.9303 C   0  0  0  0  0  0  0  0  0  0  0  0
    8.0096   -2.1843   25.7693 C   0  0  0  0  0  0  0  0  0  0  0  0
    8.5865   -3.0599   26.3832 O   0  0  0  0  0  0  0  0  0  0  0  0
    6.5188   -2.3243   25.8584 N   0  0  0  0  0  0  0  0  0  0  0  0
    5.9004   -1.2050   25.0744 C   0  0  0  0  0  0  0  0  0  0  0  0
    7.0090   -0.3731   24.5008 C   0  0  0  0  0  0  0  0  0  0  0  0
    9.5314   -1.6923   25.4351 C   0  0  0  0  0  0  0  0  0  0  0  0
    9.3837   -2.9171   26.2882 C   0  0  0  0  0  0  0  0  0  0  0  0
   10.6025   -3.6310   26.7930 C   0  0  0  0  0  0  0  0  0  0  0  0
   10.4548   -4.8559   27.6461 Cl  0  0  0  0  0  0  0  0  0  0  0  0
   11.9691   -3.1201   26.4446 C   0  0  0  0  0  0  0  0  0  0  0  0
   12.1168   -1.8952   25.5914 C   0  0  0  0  0  0  0  0  0  0  0  0
   10.8980   -1.1814   25.0867 C   0  0  0  0  0  0  0  0  0  0  0  0
   11.0457    0.0436   24.2335 C   0  0  0  0  0  0  0  0  0  0  0  0
   12.4123    0.5545   23.8851 O   0  0  0  0  0  0  0  0  0  0  0  0
    5.7767   -3.3956   26.6011 C   0  0  0  0  0  0  0  0  0  0  0  0
    5.3949   -4.6664   25.9014 C   0  0  0  0  0  0  0  0  0  0  0  0
    4.6529   -5.7377   26.6441 N   0  0  0  0  0  0  0  0  0  0  0  0
    4.2926   -5.5383   28.0865 C   0  0  0  0  0  0  0  0  0  0  0  0
    4.6744   -4.2676   28.7861 C   0  0  0  0  0  0  0  0  0  0  0  0
    4.3141   -4.0682   30.2286 C   0  0  0  0  0  0  0  0  0  0  0  0
    4.6959   -2.7974   30.9282 C   0  0  0  0  0  0  0  0  0  0  0  0
    5.4380   -1.7261   30.1855 C   0  0  0  0  0  0  0  0  0  0  0  0
    5.7983   -1.9255   28.7431 C   0  0  0  0  0  0  0  0  0  0  0  0
    5.4165   -3.1962   28.0435 C   0  0  0  0  0  0  0  0  0  0  0  0
    9.9746    1.9823   22.8755 C   0  0  0  0  0  0  0  0  0  0  0  0
    6.9274    4.4416   22.2303 C   0  0  0  0  0  0  0  0  0  0  0  0
    8.1361    3.8180   22.8628 N   0  0  0  0  0  0  0  0  0  0  0  0
    8.7659    2.6059   22.2430 C   0  0  0  0  0  0  0  0  0  0  0  0
    8.1871    2.0174   20.9905 O   0  0  0  0  0  0  0  0  0  0  0  0
    8.5160    4.2042   23.6849 H   0  0  0  0  0  0  0  0  0  0  0  0
    6.8432    0.8493   23.6475 C   0  0  0  0  0  0  0  0  0  0  0  0
    5.5051    1.1721   23.0515 N   0  0  0  0  0  0  0  0  0  0  0  0
    4.9469    0.6063   21.7794 C   0  0  0  0  0  0  0  0  0  0  0  0
    3.5871    1.2018   21.5646 C   0  0  0  0  0  0  0  0  0  0  0  0
    3.3048    2.1357   22.7040 C   0  0  0  0  0  0  0  0  0  0  0  0
    4.4902    2.1173   23.6229 N   0  0  0  0  0  0  0  0  0  0  0  0
 29 30  1  0  0  0
 30 31  1  0  0  0
 31 32  2  0  0  0
 31 28  1  0  0  0
 28  1  1  0  0  0
  1  2  1  0  0  0
  3  2  1  0  0  0
  3  4  1  0  0  0
  4  5  2  0  0  0
  4  6  1  0  0  0
  6 18  1  0  0  0
 18 19  2  0  0  0
 19 20  1  0  0  0
 20 21  2  0  0  0
 21 22  1  0  0  0
 22 23  2  0  0  0
 23 24  1  0  0  0
 24 25  2  0  0  0
 25 26  1  0  0  0
 26 27  2  0  0  0
  6  7  1  0  0  0
  7  8  1  0  0  0
  8 34  1  0  0  0
 34 35  1  0  0  0
 35 36  1  0  0  0
 36 37  2  0  0  0
 37 38  1  0  0  0
 38 39  2  0  0  0
  3  9  1  0  0  0
  9 10  2  0  0  0
 10 11  1  0  0  0
 11 12  1  0  0  0
 11 13  2  0  0  0
 13 14  1  0  0  0
 14 15  2  0  0  0
 15 16  1  0  0  0
 16 17  2  0  0  0
 16  1  1  0  0  0
  8  3  1  0  0  0
 39 35  1  0  0  0
 15  9  1  0  0  0
 27 18  1  0  0  0
 27 22  1  0  0  0
 30 33  1  0  0  0
M  END
> <minimizedAffinity>
-7.32891

> <CNNscore>
0.3196870685

> <CNNaffinity>
6.6321325302

> <CNN_VS>
2.1202070713

> <CNNaffinity_variance>
0.2910265923

$$$$



 39 44  0  0  0  0  0  0  0  0999 V2000
   10.0251    1.2643   22.5982 N   0  0  0  0  0  0  0  0  0  0  0  0
    8.8202    0.4020   22.3646 C   0  0  0  0  0  0  0  0  0  0  0  0
    8.7189   -0.9403   23.0263 C   0  0  0  0  0  0  0  0  0  0  0  0
    8.4788   -2.2984   23.6162 C   0  0  0  0  0  0  0  0  0  0  0  0
    9.0145   -3.0999   24.3558 O   0  0  0  0  0  0  0  0  0  0  0  0
    7.1540   -2.7934   23.1163 N   0  0  0  0  0  0  0  0  0  0  0  0
    6.5753   -1.7412   22.2174 C   0  0  0  0  0  0  0  0  0  0  0  0
    7.5425   -0.5960   22.1617 C   0  0  0  0  0  0  0  0  0  0  0  0
    9.8226   -1.4204   23.9216 C   0  0  0  0  0  0  0  0  0  0  0  0
    9.7213   -2.7628   24.5832 C   0  0  0  0  0  0  0  0  0  0  0  0
   10.8249   -3.2428   25.4785 C   0  0  0  0  0  0  0  0  0  0  0  0
   10.7236   -4.5852   26.1402 Cl  0  0  0  0  0  0  0  0  0  0  0  0
   12.0298   -2.3805   25.7121 C   0  0  0  0  0  0  0  0  0  0  0  0
   12.1311   -1.0382   25.0504 C   0  0  0  0  0  0  0  0  0  0  0  0
   11.0275   -0.5581   24.1552 C   0  0  0  0  0  0  0  0  0  0  0  0
   11.1288    0.7843   23.4934 C   0  0  0  0  0  0  0  0  0  0  0  0
   12.3337    1.6466   23.7270 O   0  0  0  0  0  0  0  0  0  0  0  0
    6.5194   -4.1095   23.4557 C   0  0  0  0  0  0  0  0  0  0  0  0
    6.6242   -5.2612   22.5004 C   0  0  0  0  0  0  0  0  0  0  0  0
    5.9896   -6.5773   22.8398 N   0  0  0  0  0  0  0  0  0  0  0  0
    5.2501   -6.7416   24.1345 C   0  0  0  0  0  0  0  0  0  0  0  0
    5.1453   -5.5898   25.0897 C   0  0  0  0  0  0  0  0  0  0  0  0
    4.4058   -5.7542   26.3845 C   0  0  0  0  0  0  0  0  0  0  0  0
    4.3010   -4.6024   27.3397 C   0  0  0  0  0  0  0  0  0  0  0  0
    4.9356   -3.2863   27.0002 C   0  0  0  0  0  0  0  0  0  0  0  0
    5.6751   -3.1220   25.7056 C   0  0  0  0  0  0  0  0  0  0  0  0
    5.7799   -4.2738   24.7503 C   0  0  0  0  0  0  0  0  0  0  0  0
   10.1264    2.6067   21.9365 C   0  0  0  0  0  0  0  0  0  0  0  0
    9.9877    6.3215   23.3260 C   0  0  0  0  0  0  0  0  0  0  0  0
   10.4640    5.0936   22.6081 N   0  0  0  0  0  0  0  0  0  0  0  0
    9.6501    3.8346   22.6544 C   0  0  0  0  0  0  0  0  0  0  0  0
    8.3597    3.8033   23.4187 O   0  0  0  0  0  0  0  0  0  0  0  0
   11.3109    5.1141   22.1064 H   0  0  0  0  0  0  0  0  0  0  0  0
    7.3644    0.6711   21.3790 C   0  0  0  0  0  0  0  0  0  0  0  0
    6.3780    0.7232   20.2503 N   0  0  0  0  0  0  0  0  0  0  0  0
    4.9724    1.2407   20.3310 C   0  0  0  0  0  0  0  0  0  0  0  0
    4.3495    1.1042   18.9733 C   0  0  0  0  0  0  0  0  0  0  0  0
    5.3701    0.5023   18.0535 C   0  0  0  0  0  0  0  0  0  0  0  0
    6.6237    0.2668   18.8427 N   0  0  0  0  0  0  0  0  0  0  0  0
 29 30  1  0  0  0
 30 31  1  0  0  0
 31 32  2  0  0  0
 31 28  1  0  0  0
 28  1  1  0  0  0
  1  2  1  0  0  0
  3  2  1  0  0  0
  3  4  1  0  0  0
  4  5  2  0  0  0
  4  6  1  0  0  0
  6 18  1  0  0  0
 18 19  2  0  0  0
 19 20  1  0  0  0
 20 21  2  0  0  0
 21 22  1  0  0  0
 22 23  2  0  0  0
 23 24  1  0  0  0
 24 25  2  0  0  0
 25 26  1  0  0  0
 26 27  2  0  0  0
  6  7  1  0  0  0
  7  8  1  0  0  0
  8 34  1  0  0  0
 34 35  1  0  0  0
 35 36  1  0  0  0
 36 37  2  0  0  0
 37 38  1  0  0  0
 38 39  2  0  0  0
  3  9  1  0  0  0
  9 10  2  0  0  0
 10 11  1  0  0  0
 11 12  1  0  0  0
 11 13  2  0  0  0
 13 14  1  0  0  0
 14 15  2  0  0  0
 15 16  1  0  0  0
 16 17  2  0  0  0
 16  1  1  0  0  0
  8  3  1  0  0  0
 39 35  1  0  0  0
 15  9  1  0  0  0
 27 18  1  0  0  0
 27 22  1  0  0  0
 30 33  1  0  0  0
M  END
> <minimizedAffinity>
-8.75340

> <CNNscore>
0.2960237265

> <CNNaffinity>
6.8634643555

> <CNN_VS>
2.0317482948

> <CNNaffinity_variance>
0.1465786248

$$$$



 39 44  0  0  0  0  0  0  0  0999 V2000
   10.3828    0.4280   23.6089 N   0  0  0  0  0  0  0  0  0  0  0  0
    8.9927    0.0348   24.0128 C   0  0  0  0  0  0  0  0  0  0  0  0
    8.7819   -1.1126   24.9556 C   0  0  0  0  0  0  0  0  0  0  0  0
    8.4171   -2.2320   25.8850 C   0  0  0  0  0  0  0  0  0  0  0  0
    8.9474   -3.0972   26.5534 O   0  0  0  0  0  0  0  0  0  0  0  0
    6.9223   -2.2666   26.0049 N   0  0  0  0  0  0  0  0  0  0  0  0
    6.3632   -1.1685   25.1495 C   0  0  0  0  0  0  0  0  0  0  0  0
    7.5125   -0.4554   24.5010 C   0  0  0  0  0  0  0  0  0  0  0  0
    9.9611   -1.8671   25.4944 C   0  0  0  0  0  0  0  0  0  0  0  0
    9.7503   -3.0146   26.4371 C   0  0  0  0  0  0  0  0  0  0  0  0
   10.9295   -3.7689   26.9758 C   0  0  0  0  0  0  0  0  0  0  0  0
   10.7187   -4.9165   27.9186 Cl  0  0  0  0  0  0  0  0  0  0  0  0
   12.3196   -3.3758   26.5719 C   0  0  0  0  0  0  0  0  0  0  0  0
   12.5304   -2.2284   25.6292 C   0  0  0  0  0  0  0  0  0  0  0  0
   11.3512   -1.4740   25.0904 C   0  0  0  0  0  0  0  0  0  0  0  0
   11.5620   -0.3264   24.1476 C   0  0  0  0  0  0  0  0  0  0  0  0
   12.9521    0.0667   23.7436 O   0  0  0  0  0  0  0  0  0  0  0  0
    6.1264   -3.2301   26.8345 C   0  0  0  0  0  0  0  0  0  0  0  0
    6.0170   -3.0308   28.3172 C   0  0  0  0  0  0  0  0  0  0  0  0
    5.2211   -3.9942   29.1468 N   0  0  0  0  0  0  0  0  0  0  0  0
    4.5346   -5.1570   28.4937 C   0  0  0  0  0  0  0  0  0  0  0  0
    4.6439   -5.3563   27.0110 C   0  0  0  0  0  0  0  0  0  0  0  0
    3.9573   -6.5192   26.3579 C   0  0  0  0  0  0  0  0  0  0  0  0
    4.0668   -6.7184   24.8752 C   0  0  0  0  0  0  0  0  0  0  0  0
    4.8627   -5.7550   24.0456 C   0  0  0  0  0  0  0  0  0  0  0  0
    5.5492   -4.5922   24.6987 C   0  0  0  0  0  0  0  0  0  0  0  0
    5.4399   -4.3929   26.1814 C   0  0  0  0  0  0  0  0  0  0  0  0
   10.5936    1.5755   22.6661 C   0  0  0  0  0  0  0  0  0  0  0  0
    8.1490    4.6446   23.2615 C   0  0  0  0  0  0  0  0  0  0  0  0
    9.2426    3.6409   23.4777 N   0  0  0  0  0  0  0  0  0  0  0  0
    9.5000    2.5792   22.4499 C   0  0  0  0  0  0  0  0  0  0  0  0
    8.6638    2.5210   21.2059 O   0  0  0  0  0  0  0  0  0  0  0  0
    9.7914    3.6791   24.2941 H   0  0  0  0  0  0  0  0  0  0  0  0
    7.4103    0.7104   23.5627 C   0  0  0  0  0  0  0  0  0  0  0  0
    6.3364    0.7388   22.5159 N   0  0  0  0  0  0  0  0  0  0  0  0
    5.3546    1.8501   22.2899 C   0  0  0  0  0  0  0  0  0  0  0  0
    4.4672    1.4590   21.1456 C   0  0  0  0  0  0  0  0  0  0  0  0
    4.9005    0.1060   20.6644 C   0  0  0  0  0  0  0  0  0  0  0  0
    6.0557   -0.3391   21.5113 N   0  0  0  0  0  0  0  0  0  0  0  0
 29 30  1  0  0  0
 30 31  1  0  0  0
 31 32  2  0  0  0
 31 28  1  0  0  0
 28  1  1  0  0  0
  1  2  1  0  0  0
  3  2  1  0  0  0
  3  4  1  0  0  0
  4  5  2  0  0  0
  4  6  1  0  0  0
  6 18  1  0  0  0
 18 19  2  0  0  0
 19 20  1  0  0  0
 20 21  2  0  0  0
 21 22  1  0  0  0
 22 23  2  0  0  0
 23 24  1  0  0  0
 24 25  2  0  0  0
 25 26  1  0  0  0
 26 27  2  0  0  0
  6  7  1  0  0  0
  7  8  1  0  0  0
  8 34  1  0  0  0
 34 35  1  0  0  0
 35 36  1  0  0  0
 36 37  2  0  0  0
 37 38  1  0  0  0
 38 39  2  0  0  0
  3  9  1  0  0  0
  9 10  2  0  0  0
 10 11  1  0  0  0
 11 12  1  0  0  0
 11 13  2  0  0  0
 13 14  1  0  0  0
 14 15  2  0  0  0
 15 16  1  0  0  0
 16 17  2  0  0  0
 16  1  1  0  0  0
  8  3  1  0  0  0
 39 35  1  0  0  0
 15  9  1  0  0  0
 27 18  1  0  0  0
 27 22  1  0  0  0
 30 33  1  0  0  0
M  END
> <minimizedAffinity>
-8.07334

> <CNNscore>
0.2418098152

> <CNNaffinity>
6.6762351990

> <CNN_VS>
1.6143791676

> <CNNaffinity_variance>
0.2199646682

$$$$



 39 44  0  0  0  0  0  0  0  0999 V2000
    9.6257    0.6200   23.2185 N   0  0  0  0  0  0  0  0  0  0  0  0
    8.4405   -0.2945   23.1234 C   0  0  0  0  0  0  0  0  0  0  0  0
    8.4662   -1.6292   23.8074 C   0  0  0  0  0  0  0  0  0  0  0  0
    8.3471   -2.9864   24.4349 C   0  0  0  0  0  0  0  0  0  0  0  0
    8.9910   -3.7535   25.1228 O   0  0  0  0  0  0  0  0  0  0  0  0
    6.9993   -3.5430   24.0835 N   0  0  0  0  0  0  0  0  0  0  0  0
    6.2853   -2.5297   23.2388 C   0  0  0  0  0  0  0  0  0  0  0  0
    7.1919   -1.3469   23.0682 C   0  0  0  0  0  0  0  0  0  0  0  0
    9.6772   -2.0495   24.5865 C   0  0  0  0  0  0  0  0  0  0  0  0
    9.7029   -3.3842   25.2705 C   0  0  0  0  0  0  0  0  0  0  0  0
   10.9138   -3.8044   26.0495 C   0  0  0  0  0  0  0  0  0  0  0  0
   10.9396   -5.1392   26.7336 Cl  0  0  0  0  0  0  0  0  0  0  0  0
   12.0991   -2.8900   26.1446 C   0  0  0  0  0  0  0  0  0  0  0  0
   12.0733   -1.5553   25.4606 C   0  0  0  0  0  0  0  0  0  0  0  0
   10.8624   -1.1350   24.6815 C   0  0  0  0  0  0  0  0  0  0  0  0
   10.8366    0.1997   23.9975 C   0  0  0  0  0  0  0  0  0  0  0  0
   12.0219    1.1142   24.0926 O   0  0  0  0  0  0  0  0  0  0  0  0
    6.4601   -4.8783   24.5031 C   0  0  0  0  0  0  0  0  0  0  0  0
    6.9807   -6.1318   23.8643 C   0  0  0  0  0  0  0  0  0  0  0  0
    6.4415   -7.4671   24.2839 N   0  0  0  0  0  0  0  0  0  0  0  0
    5.3818   -7.5491   25.3423 C   0  0  0  0  0  0  0  0  0  0  0  0
    4.8612   -6.2957   25.9811 C   0  0  0  0  0  0  0  0  0  0  0  0
    3.8014   -6.3777   27.0395 C   0  0  0  0  0  0  0  0  0  0  0  0
    3.2809   -5.1242   27.6783 C   0  0  0  0  0  0  0  0  0  0  0  0
    3.8201   -3.7889   27.2586 C   0  0  0  0  0  0  0  0  0  0  0  0
    4.8798   -3.7069   26.2002 C   0  0  0  0  0  0  0  0  0  0  0  0
    5.4004   -4.9603   25.5615 C   0  0  0  0  0  0  0  0  0  0  0  0
    9.5999    1.9547   22.5344 C   0  0  0  0  0  0  0  0  0  0  0  0
   11.9653    5.0975   22.0074 C   0  0  0  0  0  0  0  0  0  0  0  0
   10.7923    4.1704   21.8871 N   0  0  0  0  0  0  0  0  0  0  0  0
   10.7729    2.8819   22.6548 C   0  0  0  0  0  0  0  0  0  0  0  0
   11.9265    2.5206   23.5430 O   0  0  0  0  0  0  0  0  0  0  0  0
   10.0352    4.4075   21.3041 H   0  0  0  0  0  0  0  0  0  0  0  0
    6.8790   -0.1007   22.2942 C   0  0  0  0  0  0  0  0  0  0  0  0
    6.4660   -0.1952   20.8553 N   0  0  0  0  0  0  0  0  0  0  0  0
    5.5088   -1.1948   20.2767 C   0  0  0  0  0  0  0  0  0  0  0  0
    5.3888   -0.9242   18.8062 C   0  0  0  0  0  0  0  0  0  0  0  0
    6.2718    0.2426   18.4760 C   0  0  0  0  0  0  0  0  0  0  0  0
    6.9375    0.6930   19.7424 N   0  0  0  0  0  0  0  0  0  0  0  0
 29 30  1  0  0  0
 30 31  1  0  0  0
 31 32  2  0  0  0
 31 28  1  0  0  0
 28  1  1  0  0  0
  1  2  1  0  0  0
  3  2  1  0  0  0
  3  4  1  0  0  0
  4  5  2  0  0  0
  4  6  1  0  0  0
  6 18  1  0  0  0
 18 19  2  0  0  0
 19 20  1  0  0  0
 20 21  2  0  0  0
 21 22  1  0  0  0
 22 23  2  0  0  0
 23 24  1  0  0  0
 24 25  2  0  0  0
 25 26  1  0  0  0
 26 27  2  0  0  0
  6  7  1  0  0  0
  7  8  1  0  0  0
  8 34  1  0  0  0
 34 35  1  0  0  0
 35 36  1  0  0  0
 36 37  2  0  0  0
 37 38  1  0  0  0
 38 39  2  0  0  0
  3  9  1  0  0  0
  9 10  2  0  0  0
 10 11  1  0  0  0
 11 12  1  0  0  0
 11 13  2  0  0  0
 13 14  1  0  0  0
 14 15  2  0  0  0
 15 16  1  0  0  0
 16 17  2  0  0  0
 16  1  1  0  0  0
  8  3  1  0  0  0
 39 35  1  0  0  0
 15  9  1  0  0  0
 27 18  1  0  0  0
 27 22  1  0  0  0
 30 33  1  0  0  0
M  END
> <minimizedAffinity>
-9.16006

> <CNNscore>
0.2147524655

> <CNNaffinity>
6.7106270790

> <CNN_VS>
1.4411237240

> <CNNaffinity_variance>
0.2706150711

$$$$



 39 44  0  0  0  0  0  0  0  0999 V2000
   10.1012    2.0069   22.9061 N   0  0  0  0  0  0  0  0  0  0  0  0
    8.7631    1.3975   23.2033 C   0  0  0  0  0  0  0  0  0  0  0  0
    8.6811    0.0664   23.8898 C   0  0  0  0  0  0  0  0  0  0  0  0
    8.4429   -1.2507   24.5670 C   0  0  0  0  0  0  0  0  0  0  0  0
    9.0661   -2.1741   25.0521 O   0  0  0  0  0  0  0  0  0  0  0  0
    6.9609   -1.4639   24.6578 N   0  0  0  0  0  0  0  0  0  0  0  0
    6.2831   -0.2786   24.0367 C   0  0  0  0  0  0  0  0  0  0  0  0
    7.3463    0.6671   23.5621 C   0  0  0  0  0  0  0  0  0  0  0  0
    9.9371   -0.6555   24.2791 C   0  0  0  0  0  0  0  0  0  0  0  0
    9.8550   -1.9866   24.9656 C   0  0  0  0  0  0  0  0  0  0  0  0
   11.1109   -2.7084   25.3548 C   0  0  0  0  0  0  0  0  0  0  0  0
   11.0289   -4.0396   26.0413 Cl  0  0  0  0  0  0  0  0  0  0  0  0
   12.4490   -2.0991   25.0575 C   0  0  0  0  0  0  0  0  0  0  0  0
   12.5310   -0.7679   24.3710 C   0  0  0  0  0  0  0  0  0  0  0  0
   11.2751   -0.0461   23.9818 C   0  0  0  0  0  0  0  0  0  0  0  0
   11.3571    1.2851   23.2953 C   0  0  0  0  0  0  0  0  0  0  0  0
   12.6952    1.8944   22.9980 O   0  0  0  0  0  0  0  0  0  0  0  0
    6.2768   -2.6536   25.2634 C   0  0  0  0  0  0  0  0  0  0  0  0
    6.0501   -2.7148   26.7449 C   0  0  0  0  0  0  0  0  0  0  0  0
    5.3660   -3.9045   27.3504 N   0  0  0  0  0  0  0  0  0  0  0  0
    4.9086   -5.0329   26.4745 C   0  0  0  0  0  0  0  0  0  0  0  0
    5.1353   -4.9717   24.9929 C   0  0  0  0  0  0  0  0  0  0  0  0
    4.6779   -6.1003   24.1170 C   0  0  0  0  0  0  0  0  0  0  0  0
    4.9046   -6.0390   22.6355 C   0  0  0  0  0  0  0  0  0  0  0  0
    5.5887   -4.8493   22.0299 C   0  0  0  0  0  0  0  0  0  0  0  0
    6.0461   -3.7209   22.9059 C   0  0  0  0  0  0  0  0  0  0  0  0
    5.8194   -3.7821   24.3874 C   0  0  0  0  0  0  0  0  0  0  0  0
   10.1832    3.3381   22.2195 C   0  0  0  0  0  0  0  0  0  0  0  0
   10.8405    6.7316   24.1694 C   0  0  0  0  0  0  0  0  0  0  0  0
   11.0880    5.4714   23.3943 N   0  0  0  0  0  0  0  0  0  0  0  0
    9.9357    4.5982   22.9947 C   0  0  0  0  0  0  0  0  0  0  0  0
    8.5359    4.9850   23.3703 O   0  0  0  0  0  0  0  0  0  0  0  0
   12.0067    5.2176   23.1478 H   0  0  0  0  0  0  0  0  0  0  0  0
    7.1151    1.9827   22.8796 C   0  0  0  0  0  0  0  0  0  0  0  0
    6.0476    2.1075   21.8333 N   0  0  0  0  0  0  0  0  0  0  0  0
    5.0866    3.2498   21.6861 C   0  0  0  0  0  0  0  0  0  0  0  0
    4.1987    2.9603   20.5123 C   0  0  0  0  0  0  0  0  0  0  0  0
    4.6110    1.6391   19.9340 C   0  0  0  0  0  0  0  0  0  0  0  0
    5.7537    1.1121   20.7504 N   0  0  0  0  0  0  0  0  0  0  0  0
 29 30  1  0  0  0
 30 31  1  0  0  0
 31 32  2  0  0  0
 31 28  1  0  0  0
 28  1  1  0  0  0
  1  2  1  0  0  0
  3  2  1  0  0  0
  3  4  1  0  0  0
  4  5  2  0  0  0
  4  6  1  0  0  0
  6 18  1  0  0  0
 18 19  2  0  0  0
 19 20  1  0  0  0
 20 21  2  0  0  0
 21 22  1  0  0  0
 22 23  2  0  0  0
 23 24  1  0  0  0
 24 25  2  0  0  0
 25 26  1  0  0  0
 26 27  2  0  0  0
  6  7  1  0  0  0
  7  8  1  0  0  0
  8 34  1  0  0  0
 34 35  1  0  0  0
 35 36  1  0  0  0
 36 37  2  0  0  0
 37 38  1  0  0  0
 38 39  2  0  0  0
  3  9  1  0  0  0
  9 10  2  0  0  0
 10 11  1  0  0  0
 11 12  1  0  0  0
 11 13  2  0  0  0
 13 14  1  0  0  0
 14 15  2  0  0  0
 15 16  1  0  0  0
 16 17  2  0  0  0
 16  1  1  0  0  0
  8  3  1  0  0  0
 39 35  1  0  0  0
 15  9  1  0  0  0
 27 18  1  0  0  0
 27 22  1  0  0  0
 30 33  1  0  0  0
M  END
> <minimizedAffinity>
-7.60557

> <CNNscore>
0.2053087801

> <CNNaffinity>
6.6637353897

> <CNN_VS>
1.3681234121

> <CNNaffinity_variance>
0.2212418318

$$$$



 39 44  0  0  0  0  0  0  0  0999 V2000
    5.7822    3.4846   22.7048 N   0  0  0  0  0  0  0  0  0  0  0  0
    6.5993    2.2277   22.6543 C   0  0  0  0  0  0  0  0  0  0  0  0
    6.9714    1.5234   23.9252 C   0  0  0  0  0  0  0  0  0  0  0  0
    7.4177    0.7138   25.1065 C   0  0  0  0  0  0  0  0  0  0  0  0
    7.3376    0.7140   26.3189 O   0  0  0  0  0  0  0  0  0  0  0  0
    8.2078   -0.4545   24.5958 N   0  0  0  0  0  0  0  0  0  0  0  0
    8.2499   -0.3670   23.0990 C   0  0  0  0  0  0  0  0  0  0  0  0
    7.4857    0.8555   22.6846 C   0  0  0  0  0  0  0  0  0  0  0  0
    6.5265    2.0761   25.2469 C   0  0  0  0  0  0  0  0  0  0  0  0
    6.8986    1.3718   26.5179 C   0  0  0  0  0  0  0  0  0  0  0  0
    6.4536    1.9244   27.8395 C   0  0  0  0  0  0  0  0  0  0  0  0
    6.8258    1.2201   29.1105 Cl  0  0  0  0  0  0  0  0  0  0  0  0
    5.6365    3.1813   27.8900 C   0  0  0  0  0  0  0  0  0  0  0  0
    5.2644    3.8856   26.6191 C   0  0  0  0  0  0  0  0  0  0  0  0
    5.7094    3.3329   25.2975 C   0  0  0  0  0  0  0  0  0  0  0  0
    5.3372    4.0372   24.0264 C   0  0  0  0  0  0  0  0  0  0  0  0
    4.5201    5.2941   24.0770 O   0  0  0  0  0  0  0  0  0  0  0  0
    8.8442   -1.5228   25.4348 C   0  0  0  0  0  0  0  0  0  0  0  0
    7.9872   -2.4528   26.2415 C   0  0  0  0  0  0  0  0  0  0  0  0
    8.6236   -3.5211   27.0804 N   0  0  0  0  0  0  0  0  0  0  0  0
   10.1168   -3.6594   27.1126 C   0  0  0  0  0  0  0  0  0  0  0  0
   10.9737   -2.7294   26.3059 C   0  0  0  0  0  0  0  0  0  0  0  0
   12.4671   -2.8677   26.3381 C   0  0  0  0  0  0  0  0  0  0  0  0
   13.3239   -1.9377   25.5314 C   0  0  0  0  0  0  0  0  0  0  0  0
   12.6876   -0.8694   24.6925 C   0  0  0  0  0  0  0  0  0  0  0  0
   11.1943   -0.7311   24.6602 C   0  0  0  0  0  0  0  0  0  0  0  0
   10.3374   -1.6611   25.4670 C   0  0  0  0  0  0  0  0  0  0  0  0
    5.4100    4.1889   21.4338 C   0  0  0  0  0  0  0  0  0  0  0  0
    1.7011    4.4095   20.0392 C   0  0  0  0  0  0  0  0  0  0  0  0
    2.9712    4.7690   20.7517 N   0  0  0  0  0  0  0  0  0  0  0  0
    4.1399    3.8294   20.7213 C   0  0  0  0  0  0  0  0  0  0  0  0
    4.0386    2.5301   19.9785 O   0  0  0  0  0  0  0  0  0  0  0  0
    3.0377    5.6218   21.2392 H   0  0  0  0  0  0  0  0  0  0  0  0
    7.2732    1.3272   21.2766 C   0  0  0  0  0  0  0  0  0  0  0  0
    6.5839    0.4388   20.2840 N   0  0  0  0  0  0  0  0  0  0  0  0
    5.6943   -0.7241   20.6103 C   0  0  0  0  0  0  0  0  0  0  0  0
    5.2236   -1.3244   19.3187 C   0  0  0  0  0  0  0  0  0  0  0  0
    5.8224   -0.5326   18.1942 C   0  0  0  0  0  0  0  0  0  0  0  0
    6.6630    0.5570   18.7908 N   0  0  0  0  0  0  0  0  0  0  0  0
 29 30  1  0  0  0
 30 31  1  0  0  0
 31 32  2  0  0  0
 31 28  1  0  0  0
 28  1  1  0  0  0
  1  2  1  0  0  0
  3  2  1  0  0  0
  3  4  1  0  0  0
  4  5  2  0  0  0
  4  6  1  0  0  0
  6 18  1  0  0  0
 18 19  2  0  0  0
 19 20  1  0  0  0
 20 21  2  0  0  0
 21 22  1  0  0  0
 22 23  2  0  0  0
 23 24  1  0  0  0
 24 25  2  0  0  0
 25 26  1  0  0  0
 26 27  2  0  0  0
  6  7  1  0  0  0
  7  8  1  0  0  0
  8 34  1  0  0  0
 34 35  1  0  0  0
 35 36  1  0  0  0
 36 37  2  0  0  0
 37 38  1  0  0  0
 38 39  2  0  0  0
  3  9  1  0  0  0
  9 10  2  0  0  0
 10 11  1  0  0  0
 11 12  1  0  0  0
 11 13  2  0  0  0
 13 14  1  0  0  0
 14 15  2  0  0  0
 15 16  1  0  0  0
 16 17  2  0  0  0
 16  1  1  0  0  0
  8  3  1  0  0  0
 39 35  1  0  0  0
 15  9  1  0  0  0
 27 18  1  0  0  0
 27 22  1  0  0  0
 30 33  1  0  0  0
M  END
> <minimizedAffinity>
-7.83610

> <CNNscore>
0.2015845329

> <CNNaffinity>
6.3594522476

> <CNN_VS>
1.2819671631

> <CNNaffinity_variance>
0.0466547459

$$$$



 39 44  0  0  0  0  0  0  0  0999 V2000
    6.7824   -3.5135   22.7604 N   0  0  0  0  0  0  0  0  0  0  0  0
    6.9855   -2.0934   22.3221 C   0  0  0  0  0  0  0  0  0  0  0  0
    8.1675   -1.3163   22.8210 C   0  0  0  0  0  0  0  0  0  0  0  0
    9.2962   -0.4188   23.2342 C   0  0  0  0  0  0  0  0  0  0  0  0
   10.2929   -0.4364   23.9289 O   0  0  0  0  0  0  0  0  0  0  0  0
    9.1038    0.9078   22.5611 N   0  0  0  0  0  0  0  0  0  0  0  0
    7.8562    0.8303   21.7320 C   0  0  0  0  0  0  0  0  0  0  0  0
    7.2775   -0.5442   21.8926 C   0  0  0  0  0  0  0  0  0  0  0  0
    9.1465   -1.9592   23.7582 C   0  0  0  0  0  0  0  0  0  0  0  0
   10.3284   -1.1821   24.2571 C   0  0  0  0  0  0  0  0  0  0  0  0
   11.3073   -1.8250   25.1943 C   0  0  0  0  0  0  0  0  0  0  0  0
   12.4894   -1.0479   25.6932 Cl  0  0  0  0  0  0  0  0  0  0  0  0
   11.1043   -3.2451   25.6325 C   0  0  0  0  0  0  0  0  0  0  0  0
    9.9223   -4.0223   25.1337 C   0  0  0  0  0  0  0  0  0  0  0  0
    8.9434   -3.3793   24.1965 C   0  0  0  0  0  0  0  0  0  0  0  0
    7.7613   -4.1565   23.6976 C   0  0  0  0  0  0  0  0  0  0  0  0
    7.5583   -5.5766   24.1358 O   0  0  0  0  0  0  0  0  0  0  0  0
   10.0014    2.1022   22.6939 C   0  0  0  0  0  0  0  0  0  0  0  0
   11.4906    1.9232   22.7098 C   0  0  0  0  0  0  0  0  0  0  0  0
   12.3883    3.1176   22.8426 N   0  0  0  0  0  0  0  0  0  0  0  0
   11.7967    4.4910   22.9595 C   0  0  0  0  0  0  0  0  0  0  0  0
   10.3075    4.6701   22.9436 C   0  0  0  0  0  0  0  0  0  0  0  0
    9.7159    6.0436   23.0605 C   0  0  0  0  0  0  0  0  0  0  0  0
    8.2267    6.2225   23.0446 C   0  0  0  0  0  0  0  0  0  0  0  0
    7.3291    5.0281   22.9118 C   0  0  0  0  0  0  0  0  0  0  0  0
    7.9206    3.6547   22.7949 C   0  0  0  0  0  0  0  0  0  0  0  0
    9.4098    3.4757   22.8108 C   0  0  0  0  0  0  0  0  0  0  0  0
    5.6004   -4.2907   22.2615 C   0  0  0  0  0  0  0  0  0  0  0  0
    4.5417   -7.4090   24.4763 C   0  0  0  0  0  0  0  0  0  0  0  0
    5.3187   -6.5382   23.5339 N   0  0  0  0  0  0  0  0  0  0  0  0
    4.8233   -5.1614   23.2038 C   0  0  0  0  0  0  0  0  0  0  0  0
    3.5509   -4.6553   23.8161 O   0  0  0  0  0  0  0  0  0  0  0  0
    6.1538   -6.8704   23.1320 H   0  0  0  0  0  0  0  0  0  0  0  0
    6.0282   -1.0567   21.2395 C   0  0  0  0  0  0  0  0  0  0  0  0
    5.1466   -0.1199   20.4682 N   0  0  0  0  0  0  0  0  0  0  0  0
    5.2601    0.1944   19.0058 C   0  0  0  0  0  0  0  0  0  0  0  0
    4.1803    1.1757   18.6575 C   0  0  0  0  0  0  0  0  0  0  0  0
    3.3996    1.4678   19.9045 C   0  0  0  0  0  0  0  0  0  0  0  0
    3.9968    0.6671   21.0235 N   0  0  0  0  0  0  0  0  0  0  0  0
 29 30  1  0  0  0
 30 31  1  0  0  0
 31 32  2  0  0  0
 31 28  1  0  0  0
 28  1  1  0  0  0
  1  2  1  0  0  0
  3  2  1  0  0  0
  3  4  1  0  0  0
  4  5  2  0  0  0
  4  6  1  0  0  0
  6 18  1  0  0  0
 18 19  2  0  0  0
 19 20  1  0  0  0
 20 21  2  0  0  0
 21 22  1  0  0  0
 22 23  2  0  0  0
 23 24  1  0  0  0
 24 25  2  0  0  0
 25 26  1  0  0  0
 26 27  2  0  0  0
  6  7  1  0  0  0
  7  8  1  0  0  0
  8 34  1  0  0  0
 34 35  1  0  0  0
 35 36  1  0  0  0
 36 37  2  0  0  0
 37 38  1  0  0  0
 38 39  2  0  0  0
  3  9  1  0  0  0
  9 10  2  0  0  0
 10 11  1  0  0  0
 11 12  1  0  0  0
 11 13  2  0  0  0
 13 14  1  0  0  0
 14 15  2  0  0  0
 15 16  1  0  0  0
 16 17  2  0  0  0
 16  1  1  0  0  0
  8  3  1  0  0  0
 39 35  1  0  0  0
 15  9  1  0  0  0
 27 18  1  0  0  0
 27 22  1  0  0  0
 30 33  1  0  0  0
M  END
> <minimizedAffinity>
-7.41616

> <CNNscore>
0.1926815063

> <CNNaffinity>
6.6824407578

> <CNN_VS>
1.2875827551

> <CNNaffinity_variance>
0.1074675322

$$$$



 39 44  0  0  0  0  0  0  0  0999 V2000
    7.5995   -2.7535   22.6736 N   0  0  0  0  0  0  0  0  0  0  0  0
    8.7122   -1.7849   22.9450 C   0  0  0  0  0  0  0  0  0  0  0  0
    8.5346   -0.3300   22.6262 C   0  0  0  0  0  0  0  0  0  0  0  0
    8.5030    1.1461   22.3611 C   0  0  0  0  0  0  0  0  0  0  0  0
    7.7553    1.9970   21.9217 O   0  0  0  0  0  0  0  0  0  0  0  0
    9.8232    1.7209   22.7814 N   0  0  0  0  0  0  0  0  0  0  0  0
   10.6707    0.6001   23.3062 C   0  0  0  0  0  0  0  0  0  0  0  0
    9.8744   -0.6674   23.2103 C   0  0  0  0  0  0  0  0  0  0  0  0
    7.2442    0.1564   22.0359 C   0  0  0  0  0  0  0  0  0  0  0  0
    7.0666    1.6113   21.7171 C   0  0  0  0  0  0  0  0  0  0  0  0
    5.7762    2.0976   21.1269 C   0  0  0  0  0  0  0  0  0  0  0  0
    5.5985    3.5526   20.8080 Cl  0  0  0  0  0  0  0  0  0  0  0  0
    4.6635    1.1290   20.8555 C   0  0  0  0  0  0  0  0  0  0  0  0
    4.8411   -0.3259   21.1743 C   0  0  0  0  0  0  0  0  0  0  0  0
    6.1314   -0.8122   21.7645 C   0  0  0  0  0  0  0  0  0  0  0  0
    6.3091   -2.2671   22.0833 C   0  0  0  0  0  0  0  0  0  0  0  0
    5.1964   -3.2357   21.8119 O   0  0  0  0  0  0  0  0  0  0  0  0
   10.2252    3.1633   22.6925 C   0  0  0  0  0  0  0  0  0  0  0  0
   11.5249    3.5412   22.0460 C   0  0  0  0  0  0  0  0  0  0  0  0
   11.9269    4.9836   21.9571 N   0  0  0  0  0  0  0  0  0  0  0  0
   11.0292    6.0481   22.5146 C   0  0  0  0  0  0  0  0  0  0  0  0
    9.7294    5.6702   23.1611 C   0  0  0  0  0  0  0  0  0  0  0  0
    8.8317    6.7348   23.7186 C   0  0  0  0  0  0  0  0  0  0  0  0
    7.5319    6.3568   24.3650 C   0  0  0  0  0  0  0  0  0  0  0  0
    7.1299    4.9144   24.4540 C   0  0  0  0  0  0  0  0  0  0  0  0
    8.0277    3.8499   23.8964 C   0  0  0  0  0  0  0  0  0  0  0  0
    9.3274    4.2278   23.2500 C   0  0  0  0  0  0  0  0  0  0  0  0
    7.7772   -4.2084   22.9924 C   0  0  0  0  0  0  0  0  0  0  0  0
    4.3892   -5.9902   24.0398 C   0  0  0  0  0  0  0  0  0  0  0  0
    5.5715   -5.0674   24.0635 N   0  0  0  0  0  0  0  0  0  0  0  0
    6.5949   -5.1312   22.9687 C   0  0  0  0  0  0  0  0  0  0  0  0
    6.4359   -6.1179   21.8501 O   0  0  0  0  0  0  0  0  0  0  0  0
    5.6758   -4.4198   24.7976 H   0  0  0  0  0  0  0  0  0  0  0  0
   10.3366   -2.0326   23.6256 C   0  0  0  0  0  0  0  0  0  0  0  0
   11.4859   -2.1777   24.5784 N   0  0  0  0  0  0  0  0  0  0  0  0
   12.8287   -1.5223   24.4464 C   0  0  0  0  0  0  0  0  0  0  0  0
   13.6670   -1.9432   25.6169 C   0  0  0  0  0  0  0  0  0  0  0  0
   12.8423   -2.8587   26.4723 C   0  0  0  0  0  0  0  0  0  0  0  0
   11.4944   -3.0036   25.8305 N   0  0  0  0  0  0  0  0  0  0  0  0
 29 30  1  0  0  0
 30 31  1  0  0  0
 31 32  2  0  0  0
 31 28  1  0  0  0
 28  1  1  0  0  0
  1  2  1  0  0  0
  3  2  1  0  0  0
  3  4  1  0  0  0
  4  5  2  0  0  0
  4  6  1  0  0  0
  6 18  1  0  0  0
 18 19  2  0  0  0
 19 20  1  0  0  0
 20 21  2  0  0  0
 21 22  1  0  0  0
 22 23  2  0  0  0
 23 24  1  0  0  0
 24 25  2  0  0  0
 25 26  1  0  0  0
 26 27  2  0  0  0
  6  7  1  0  0  0
  7  8  1  0  0  0
  8 34  1  0  0  0
 34 35  1  0  0  0
 35 36  1  0  0  0
 36 37  2  0  0  0
 37 38  1  0  0  0
 38 39  2  0  0  0
  3  9  1  0  0  0
  9 10  2  0  0  0
 10 11  1  0  0  0
 11 12  1  0  0  0
 11 13  2  0  0  0
 13 14  1  0  0  0
 14 15  2  0  0  0
 15 16  1  0  0  0
 16 17  2  0  0  0
 16  1  1  0  0  0
  8  3  1  0  0  0
 39 35  1  0  0  0
 15  9  1  0  0  0
 27 18  1  0  0  0
 27 22  1  0  0  0
 30 33  1  0  0  0
M  END
> <minimizedAffinity>
-8.11823

> <CNNscore>
0.1886157542

> <CNNaffinity>
6.8713951111

> <CNN_VS>
1.2960534096

> <CNNaffinity_variance>
0.1116647348

$$$$



 39 44  0  0  0  0  0  0  0  0999 V2000
   10.6401    1.5450   22.8077 N   0  0  0  0  0  0  0  0  0  0  0  0
    9.2472    1.2031   23.2471 C   0  0  0  0  0  0  0  0  0  0  0  0
    9.0160    0.0473   24.1748 C   0  0  0  0  0  0  0  0  0  0  0  0
    8.6318   -1.0737   25.0944 C   0  0  0  0  0  0  0  0  0  0  0  0
    9.1445   -1.9733   25.7302 O   0  0  0  0  0  0  0  0  0  0  0  0
    7.1411   -1.0476   25.2597 N   0  0  0  0  0  0  0  0  0  0  0  0
    6.6040    0.0896   24.4422 C   0  0  0  0  0  0  0  0  0  0  0  0
    7.7627    0.7662   23.7717 C   0  0  0  0  0  0  0  0  0  0  0  0
   10.1776   -0.7666   24.6631 C   0  0  0  0  0  0  0  0  0  0  0  0
    9.9463   -1.9224   25.5908 C   0  0  0  0  0  0  0  0  0  0  0  0
   11.1078   -2.7361   26.0791 C   0  0  0  0  0  0  0  0  0  0  0  0
   10.8766   -3.8920   27.0068 Cl  0  0  0  0  0  0  0  0  0  0  0  0
   12.5007   -2.3942   25.6397 C   0  0  0  0  0  0  0  0  0  0  0  0
   12.7319   -1.2384   24.7120 C   0  0  0  0  0  0  0  0  0  0  0  0
   11.5704   -0.4246   24.2237 C   0  0  0  0  0  0  0  0  0  0  0  0
   11.8016    0.7313   23.2960 C   0  0  0  0  0  0  0  0  0  0  0  0
   13.1945    1.0732   22.8566 O   0  0  0  0  0  0  0  0  0  0  0  0
    6.3301   -1.9926   26.0957 C   0  0  0  0  0  0  0  0  0  0  0  0
    6.0916   -3.3962   25.6234 C   0  0  0  0  0  0  0  0  0  0  0  0
    5.2805   -4.3413   26.4594 N   0  0  0  0  0  0  0  0  0  0  0  0
    4.7079   -3.8828   27.7678 C   0  0  0  0  0  0  0  0  0  0  0  0
    4.9464   -2.4792   28.2401 C   0  0  0  0  0  0  0  0  0  0  0  0
    4.3737   -2.0208   29.5486 C   0  0  0  0  0  0  0  0  0  0  0  0
    4.6123   -0.6172   30.0209 C   0  0  0  0  0  0  0  0  0  0  0  0
    5.4234    0.3279   29.1849 C   0  0  0  0  0  0  0  0  0  0  0  0
    5.9959   -0.1306   27.8765 C   0  0  0  0  0  0  0  0  0  0  0  0
    5.7575   -1.5342   27.4041 C   0  0  0  0  0  0  0  0  0  0  0  0
   10.8713    2.7009   21.8800 C   0  0  0  0  0  0  0  0  0  0  0  0
   10.6645    6.3628   23.3957 C   0  0  0  0  0  0  0  0  0  0  0  0
   10.2481    5.0311   22.8453 N   0  0  0  0  0  0  0  0  0  0  0  0
   11.2878    4.0327   22.4304 C   0  0  0  0  0  0  0  0  0  0  0  0
   12.7440    4.3660   22.5659 O   0  0  0  0  0  0  0  0  0  0  0  0
    9.2923    4.8123   22.7564 H   0  0  0  0  0  0  0  0  0  0  0  0
    7.6823    1.9534   22.8584 C   0  0  0  0  0  0  0  0  0  0  0  0
    6.5020    2.1208   21.9481 N   0  0  0  0  0  0  0  0  0  0  0  0
    6.0531    1.1478   20.8985 C   0  0  0  0  0  0  0  0  0  0  0  0
    4.8370    1.7162   20.2292 C   0  0  0  0  0  0  0  0  0  0  0  0
    4.5342    3.0405   20.8652 C   0  0  0  0  0  0  0  0  0  0  0  0
    5.5633    3.2906   21.9275 N   0  0  0  0  0  0  0  0  0  0  0  0
 29 30  1  0  0  0
 30 31  1  0  0  0
 31 32  2  0  0  0
 31 28  1  0  0  0
 28  1  1  0  0  0
  1  2  1  0  0  0
  3  2  1  0  0  0
  3  4  1  0  0  0
  4  5  2  0  0  0
  4  6  1  0  0  0
  6 18  1  0  0  0
 18 19  2  0  0  0
 19 20  1  0  0  0
 20 21  2  0  0  0
 21 22  1  0  0  0
 22 23  2  0  0  0
 23 24  1  0  0  0
 24 25  2  0  0  0
 25 26  1  0  0  0
 26 27  2  0  0  0
  6  7  1  0  0  0
  7  8  1  0  0  0
  8 34  1  0  0  0
 34 35  1  0  0  0
 35 36  1  0  0  0
 36 37  2  0  0  0
 37 38  1  0  0  0
 38 39  2  0  0  0
  3  9  1  0  0  0
  9 10  2  0  0  0
 10 11  1  0  0  0
 11 12  1  0  0  0
 11 13  2  0  0  0
 13 14  1  0  0  0
 14 15  2  0  0  0
 15 16  1  0  0  0
 16 17  2  0  0  0
 16  1  1  0  0  0
  8  3  1  0  0  0
 39 35  1  0  0  0
 15  9  1  0  0  0
 27 18  1  0  0  0
 27 22  1  0  0  0
 30 33  1  0  0  0
M  END
> <minimizedAffinity>
-8.06026

> <CNNscore>
0.1801355928

> <CNNaffinity>
6.6707201004

> <CNN_VS>
1.2016341686

> <CNNaffinity_variance>
0.2556473613

$$$$
