


 30 33  0  0  0  0  0  0  0  0999 V2000
    9.3898   -0.8811   22.6069 N   0  0  0  0  0  0  0  0  0  0  0  0
    7.9619   -1.2858   22.3893 C   0  0  0  0  0  0  0  0  0  0  0  0
    7.5975   -2.7390   22.3132 O   0  0  0  0  0  0  0  0  0  0  0  0
   10.4830    3.4781   22.8351 C   0  0  0  0  0  0  0  0  0  0  0  0
    9.0522    3.0730   22.6389 C   0  0  0  0  0  0  0  0  0  0  0  0
    8.6877    1.6200   22.5628 C   0  0  0  0  0  0  0  0  0  0  0  0
    9.7542    0.5720   22.6829 C   0  0  0  0  0  0  0  0  0  0  0  0
   11.1851    0.9771   22.8791 C   0  0  0  0  0  0  0  0  0  0  0  0
   11.5495    2.4302   22.9552 C   0  0  0  0  0  0  0  0  0  0  0  0
   11.2119    6.3843   22.9872 N   0  0  0  0  0  0  0  0  0  0  0  0
   10.8474    4.9312   22.9111 C   0  0  0  0  0  0  0  0  0  0  0  0
   10.4533   -1.9295   22.7484 C   0  0  0  0  0  0  0  0  0  0  0  0
   10.7773   -2.4913   24.1009 C   0  0  0  0  0  0  0  0  0  0  0  0
    9.7330   -3.2456   24.8696 C   0  0  0  0  0  0  0  0  0  0  0  0
   10.0571   -3.8074   26.2221 C   0  0  0  0  0  0  0  0  0  0  0  0
   11.4253   -3.6149   26.8060 C   0  0  0  0  0  0  0  0  0  0  0  0
   12.4695   -2.8607   26.0374 C   0  0  0  0  0  0  0  0  0  0  0  0
   13.8376   -2.6682   26.6214 Cl  0  0  0  0  0  0  0  0  0  0  0  0
   12.1455   -2.2988   24.6849 C   0  0  0  0  0  0  0  0  0  0  0  0
    6.8985   -0.2375   22.2477 C   0  0  0  0  0  0  0  0  0  0  0  0
    6.3609    0.1070   20.8904 C   0  0  0  0  0  0  0  0  0  0  0  0
    7.1485   -0.2392   19.6617 C   0  0  0  0  0  0  0  0  0  0  0  0
    6.6109    0.1053   18.3044 N   0  0  0  0  0  0  0  0  0  0  0  0
    5.2857    0.7962   18.1758 C   0  0  0  0  0  0  0  0  0  0  0  0
    4.4980    1.1425   19.4045 C   0  0  0  0  0  0  0  0  0  0  0  0
    3.1729    1.8333   19.2759 C   0  0  0  0  0  0  0  0  0  0  0  0
    2.3853    2.1796   20.5046 C   0  0  0  0  0  0  0  0  0  0  0  0
    2.9229    1.8350   21.8619 C   0  0  0  0  0  0  0  0  0  0  0  0
    4.2480    1.1442   21.9905 C   0  0  0  0  0  0  0  0  0  0  0  0
    5.0356    0.7979   20.7619 C   0  0  0  0  0  0  0  0  0  0  0  0
 10 11  3  0  0  0
 11  4  1  0  0  0
  4  5  2  0  0  0
  5  6  1  0  0  0
  6  7  2  0  0  0
  7  1  1  0  0  0
  1 12  1  0  0  0
 12 13  1  0  0  0
 13 14  2  0  0  0
 14 15  1  0  0  0
 15 16  2  0  0  0
 16 17  1  0  0  0
 17 18  1  0  0  0
 17 19  2  0  0  0
  1  2  1  0  0  0
  2  3  2  0  0  0
  2 20  1  0  0  0
 20 21  1  0  0  0
 21 22  2  0  0  0
 22 23  1  0  0  0
 23 24  2  0  0  0
 24 25  1  0  0  0
 25 26  2  0  0  0
 26 27  1  0  0  0
 27 28  2  0  0  0
 28 29  1  0  0  0
 29 30  2  0  0  0
  7  8  1  0  0  0
  8  9  2  0  0  0
  9  4  1  0  0  0
 19 13  1  0  0  0
 30 21  1  0  0  0
 30 25  1  0  0  0
M  END
> <minimizedAffinity>
-8.28572

> <CNNscore>
0.8343383670

> <CNNaffinity>
6.7889328003

> <CNN_VS>
5.6642670631

> <CNNaffinity_variance>
0.0610038117

$$$$



 30 33  0  0  0  0  0  0  0  0999 V2000
    9.9737   -0.6361   22.6596 N   0  0  0  0  0  0  0  0  0  0  0  0
    8.5820   -1.1829   22.5396 C   0  0  0  0  0  0  0  0  0  0  0  0
    8.3623   -2.6649   22.4653 O   0  0  0  0  0  0  0  0  0  0  0  0
   10.6330    3.8097   22.8825 C   0  0  0  0  0  0  0  0  0  0  0  0
   11.8080    2.8796   22.8165 C   0  0  0  0  0  0  0  0  0  0  0  0
   11.5882    1.3977   22.7422 C   0  0  0  0  0  0  0  0  0  0  0  0
   10.1934    0.8458   22.7339 C   0  0  0  0  0  0  0  0  0  0  0  0
    9.0185    1.7759   22.7999 C   0  0  0  0  0  0  0  0  0  0  0  0
    9.2383    3.2579   22.8742 C   0  0  0  0  0  0  0  0  0  0  0  0
   11.0726    6.7736   23.0311 N   0  0  0  0  0  0  0  0  0  0  0  0
   10.8528    5.2916   22.9568 C   0  0  0  0  0  0  0  0  0  0  0  0
   11.1456   -1.5714   22.7054 C   0  0  0  0  0  0  0  0  0  0  0  0
   11.7124   -1.9994   24.0266 C   0  0  0  0  0  0  0  0  0  0  0  0
   13.0804   -1.5428   24.4392 C   0  0  0  0  0  0  0  0  0  0  0  0
   13.6472   -1.9708   25.7604 C   0  0  0  0  0  0  0  0  0  0  0  0
   12.8459   -2.8554   26.6690 C   0  0  0  0  0  0  0  0  0  0  0  0
   11.4780   -3.3119   26.2565 C   0  0  0  0  0  0  0  0  0  0  0  0
   10.6768   -4.1965   27.1651 Cl  0  0  0  0  0  0  0  0  0  0  0  0
   10.9112   -2.8839   24.9353 C   0  0  0  0  0  0  0  0  0  0  0  0
    7.4102   -0.2477   22.4938 C   0  0  0  0  0  0  0  0  0  0  0  0
    6.7373    0.0480   21.1862 C   0  0  0  0  0  0  0  0  0  0  0  0
    7.4262   -0.2848   19.8960 C   0  0  0  0  0  0  0  0  0  0  0  0
    6.7533    0.0109   18.5885 N   0  0  0  0  0  0  0  0  0  0  0  0
    5.3915    0.6396   18.5711 C   0  0  0  0  0  0  0  0  0  0  0  0
    4.7026    0.9725   19.8613 C   0  0  0  0  0  0  0  0  0  0  0  0
    3.3408    1.6012   19.8439 C   0  0  0  0  0  0  0  0  0  0  0  0
    2.6519    1.9341   21.1341 C   0  0  0  0  0  0  0  0  0  0  0  0
    3.3248    1.6383   22.4416 C   0  0  0  0  0  0  0  0  0  0  0  0
    4.6866    1.0096   22.4590 C   0  0  0  0  0  0  0  0  0  0  0  0
    5.3754    0.6767   21.1689 C   0  0  0  0  0  0  0  0  0  0  0  0
 10 11  3  0  0  0
 11  4  1  0  0  0
  4  5  2  0  0  0
  5  6  1  0  0  0
  6  7  2  0  0  0
  7  1  1  0  0  0
  1 12  1  0  0  0
 12 13  1  0  0  0
 13 14  2  0  0  0
 14 15  1  0  0  0
 15 16  2  0  0  0
 16 17  1  0  0  0
 17 18  1  0  0  0
 17 19  2  0  0  0
  1  2  1  0  0  0
  2  3  2  0  0  0
  2 20  1  0  0  0
 20 21  1  0  0  0
 21 22  2  0  0  0
 22 23  1  0  0  0
 23 24  2  0  0  0
 24 25  1  0  0  0
 25 26  2  0  0  0
 26 27  1  0  0  0
 27 28  2  0  0  0
 28 29  1  0  0  0
 29 30  2  0  0  0
  7  8  1  0  0  0
  8  9  2  0  0  0
  9  4  1  0  0  0
 19 13  1  0  0  0
 30 21  1  0  0  0
 30 25  1  0  0  0
M  END
> <minimizedAffinity>
-8.46054

> <CNNscore>
0.8305791616

> <CNNaffinity>
6.8298630714

> <CNN_VS>
5.6727418900

> <CNNaffinity_variance>
0.0161252134

$$$$



 30 33  0  0  0  0  0  0  0  0999 V2000
    7.6616   -1.5734   22.6000 N   0  0  0  0  0  0  0  0  0  0  0  0
    6.3234   -2.1022   22.1763 C   0  0  0  0  0  0  0  0  0  0  0  0
    6.1189   -3.5789   22.0099 O   0  0  0  0  0  0  0  0  0  0  0  0
    8.2752    2.8565   23.0993 C   0  0  0  0  0  0  0  0  0  0  0  0
    7.8712    2.0180   24.2756 C   0  0  0  0  0  0  0  0  0  0  0  0
    7.6667    0.5414   24.1092 C   0  0  0  0  0  0  0  0  0  0  0  0
    7.8661   -0.0968   22.7664 C   0  0  0  0  0  0  0  0  0  0  0  0
    8.2701    0.7417   21.5901 C   0  0  0  0  0  0  0  0  0  0  0  0
    8.4746    2.2184   21.7566 C   0  0  0  0  0  0  0  0  0  0  0  0
    8.6841    5.8098   23.4322 N   0  0  0  0  0  0  0  0  0  0  0  0
    8.4797    4.3331   23.2657 C   0  0  0  0  0  0  0  0  0  0  0  0
    8.7954   -2.5214   22.8573 C   0  0  0  0  0  0  0  0  0  0  0  0
   10.1688   -1.9887   23.1401 C   0  0  0  0  0  0  0  0  0  0  0  0
   10.9950   -1.4158   22.0268 C   0  0  0  0  0  0  0  0  0  0  0  0
   12.3684   -0.8831   22.3097 C   0  0  0  0  0  0  0  0  0  0  0  0
   12.9157   -0.9234   23.7058 C   0  0  0  0  0  0  0  0  0  0  0  0
   12.0895   -1.4964   24.8189 C   0  0  0  0  0  0  0  0  0  0  0  0
   12.6368   -1.5367   26.2149 Cl  0  0  0  0  0  0  0  0  0  0  0  0
   10.7161   -2.0290   24.5361 C   0  0  0  0  0  0  0  0  0  0  0  0
    5.1897   -1.1544   21.9191 C   0  0  0  0  0  0  0  0  0  0  0  0
    5.0497   -0.4991   20.5771 C   0  0  0  0  0  0  0  0  0  0  0  0
    5.7179   -1.0996   19.3759 C   0  0  0  0  0  0  0  0  0  0  0  0
    5.5779   -0.4443   18.0339 N   0  0  0  0  0  0  0  0  0  0  0  0
    4.7697    0.8114   17.8930 C   0  0  0  0  0  0  0  0  0  0  0  0
    4.1014    1.4119   19.0942 C   0  0  0  0  0  0  0  0  0  0  0  0
    3.2932    2.6677   18.9534 C   0  0  0  0  0  0  0  0  0  0  0  0
    2.6250    3.2681   20.1545 C   0  0  0  0  0  0  0  0  0  0  0  0
    2.7650    2.6129   21.4965 C   0  0  0  0  0  0  0  0  0  0  0  0
    3.5732    1.3571   21.6374 C   0  0  0  0  0  0  0  0  0  0  0  0
    4.2414    0.7567   20.4362 C   0  0  0  0  0  0  0  0  0  0  0  0
 10 11  3  0  0  0
 11  4  1  0  0  0
  4  5  2  0  0  0
  5  6  1  0  0  0
  6  7  2  0  0  0
  7  1  1  0  0  0
  1 12  1  0  0  0
 12 13  1  0  0  0
 13 14  2  0  0  0
 14 15  1  0  0  0
 15 16  2  0  0  0
 16 17  1  0  0  0
 17 18  1  0  0  0
 17 19  2  0  0  0
  1  2  1  0  0  0
  2  3  2  0  0  0
  2 20  1  0  0  0
 20 21  1  0  0  0
 21 22  2  0  0  0
 22 23  1  0  0  0
 23 24  2  0  0  0
 24 25  1  0  0  0
 25 26  2  0  0  0
 26 27  1  0  0  0
 27 28  2  0  0  0
 28 29  1  0  0  0
 29 30  2  0  0  0
  7  8  1  0  0  0
  8  9  2  0  0  0
  9  4  1  0  0  0
 19 13  1  0  0  0
 30 21  1  0  0  0
 30 25  1  0  0  0
M  END
> <minimizedAffinity>
-7.61899

> <CNNscore>
0.7786496878

> <CNNaffinity>
6.5848288536

> <CNN_VS>
5.1272749901

> <CNNaffinity_variance>
0.0448501185

$$$$



 30 33  0  0  0  0  0  0  0  0999 V2000
    8.0150   -0.7255   23.1041 N   0  0  0  0  0  0  0  0  0  0  0  0
    7.5591   -0.1276   21.8062 C   0  0  0  0  0  0  0  0  0  0  0  0
    8.2049    1.1236   21.2890 O   0  0  0  0  0  0  0  0  0  0  0  0
    6.0778   -4.4791   24.6558 C   0  0  0  0  0  0  0  0  0  0  0  0
    5.5381   -3.1371   25.0532 C   0  0  0  0  0  0  0  0  0  0  0  0
    6.1838   -1.8859   24.5360 C   0  0  0  0  0  0  0  0  0  0  0  0
    7.3693   -1.9767   23.6213 C   0  0  0  0  0  0  0  0  0  0  0  0
    7.9090   -3.3186   23.2240 C   0  0  0  0  0  0  0  0  0  0  0  0
    7.2632   -4.5698   23.7412 C   0  0  0  0  0  0  0  0  0  0  0  0
    4.7863   -6.9815   25.6902 N   0  0  0  0  0  0  0  0  0  0  0  0
    5.4320   -5.7302   25.1730 C   0  0  0  0  0  0  0  0  0  0  0  0
    9.1167   -0.0722   23.8849 C   0  0  0  0  0  0  0  0  0  0  0  0
   10.4822   -0.6922   23.9179 C   0  0  0  0  0  0  0  0  0  0  0  0
   11.3484   -0.6644   22.6936 C   0  0  0  0  0  0  0  0  0  0  0  0
   12.7138   -1.2845   22.7266 C   0  0  0  0  0  0  0  0  0  0  0  0
   13.2130   -1.9323   23.9841 C   0  0  0  0  0  0  0  0  0  0  0  0
   12.3469   -1.9601   25.2084 C   0  0  0  0  0  0  0  0  0  0  0  0
   12.8461   -2.6080   26.4657 Cl  0  0  0  0  0  0  0  0  0  0  0  0
   10.9814   -1.3401   25.1753 C   0  0  0  0  0  0  0  0  0  0  0  0
    6.4575   -0.7809   21.0254 C   0  0  0  0  0  0  0  0  0  0  0  0
    5.8110   -0.0507   19.8857 C   0  0  0  0  0  0  0  0  0  0  0  0
    6.3756   -0.1710   18.5013 C   0  0  0  0  0  0  0  0  0  0  0  0
    5.7291    0.5592   17.3616 N   0  0  0  0  0  0  0  0  0  0  0  0
    4.5180    1.4096   17.6064 C   0  0  0  0  0  0  0  0  0  0  0  0
    3.9533    1.5299   18.9909 C   0  0  0  0  0  0  0  0  0  0  0  0
    2.7423    2.3804   19.2356 C   0  0  0  0  0  0  0  0  0  0  0  0
    2.1777    2.5006   20.6200 C   0  0  0  0  0  0  0  0  0  0  0  0
    2.8242    1.7705   21.7597 C   0  0  0  0  0  0  0  0  0  0  0  0
    4.0352    0.9200   21.5150 C   0  0  0  0  0  0  0  0  0  0  0  0
    4.5998    0.7998   20.1306 C   0  0  0  0  0  0  0  0  0  0  0  0
 10 11  3  0  0  0
 11  4  1  0  0  0
  4  5  2  0  0  0
  5  6  1  0  0  0
  6  7  2  0  0  0
  7  1  1  0  0  0
  1 12  1  0  0  0
 12 13  1  0  0  0
 13 14  2  0  0  0
 14 15  1  0  0  0
 15 16  2  0  0  0
 16 17  1  0  0  0
 17 18  1  0  0  0
 17 19  2  0  0  0
  1  2  1  0  0  0
  2  3  2  0  0  0
  2 20  1  0  0  0
 20 21  1  0  0  0
 21 22  2  0  0  0
 22 23  1  0  0  0
 23 24  2  0  0  0
 24 25  1  0  0  0
 25 26  2  0  0  0
 26 27  1  0  0  0
 27 28  2  0  0  0
 28 29  1  0  0  0
 29 30  2  0  0  0
  7  8  1  0  0  0
  8  9  2  0  0  0
  9  4  1  0  0  0
 19 13  1  0  0  0
 30 21  1  0  0  0
 30 25  1  0  0  0
M  END
> <minimizedAffinity>
-7.78882

> <CNNscore>
0.7637862563

> <CNNaffinity>
6.4426336288

> <CNN_VS>
4.9207949638

> <CNNaffinity_variance>
0.0472237132

$$$$



 30 33  0  0  0  0  0  0  0  0999 V2000
    9.7718   -0.1895   23.3411 N   0  0  0  0  0  0  0  0  0  0  0  0
    8.3597   -0.3417   23.8236 C   0  0  0  0  0  0  0  0  0  0  0  0
    7.8021   -1.7081   24.0925 O   0  0  0  0  0  0  0  0  0  0  0  0
   11.4444    3.9094   22.5343 C   0  0  0  0  0  0  0  0  0  0  0  0
   12.3658    2.7302   22.6368 C   0  0  0  0  0  0  0  0  0  0  0  0
   11.8083    1.3639   22.9057 C   0  0  0  0  0  0  0  0  0  0  0  0
   10.3293    1.1768   23.0722 C   0  0  0  0  0  0  0  0  0  0  0  0
    9.4079    2.3560   22.9697 C   0  0  0  0  0  0  0  0  0  0  0  0
    9.9655    3.7223   22.7008 C   0  0  0  0  0  0  0  0  0  0  0  0
   12.5595    6.6421   21.9965 N   0  0  0  0  0  0  0  0  0  0  0  0
   12.0019    5.2757   22.2654 C   0  0  0  0  0  0  0  0  0  0  0  0
   10.6263   -1.4037   23.1275 C   0  0  0  0  0  0  0  0  0  0  0  0
   11.4138   -1.9767   24.2684 C   0  0  0  0  0  0  0  0  0  0  0  0
   12.8165   -1.5091   24.5211 C   0  0  0  0  0  0  0  0  0  0  0  0
   13.6040   -2.0821   25.6620 C   0  0  0  0  0  0  0  0  0  0  0  0
   12.9887   -3.1227   26.5502 C   0  0  0  0  0  0  0  0  0  0  0  0
   11.5860   -3.5902   26.2974 C   0  0  0  0  0  0  0  0  0  0  0  0
   10.9708   -4.6307   27.1855 Cl  0  0  0  0  0  0  0  0  0  0  0  0
   10.7986   -3.0172   25.1565 C   0  0  0  0  0  0  0  0  0  0  0  0
    7.5051    0.8723   24.0372 C   0  0  0  0  0  0  0  0  0  0  0  0
    6.1489    0.9562   23.4017 C   0  0  0  0  0  0  0  0  0  0  0  0
    4.9520    1.3123   24.2327 C   0  0  0  0  0  0  0  0  0  0  0  0
    3.5959    1.3961   23.5972 N   0  0  0  0  0  0  0  0  0  0  0  0
    3.4366    1.1238   22.1308 C   0  0  0  0  0  0  0  0  0  0  0  0
    4.6336    0.7677   21.2997 C   0  0  0  0  0  0  0  0  0  0  0  0
    4.4743    0.4954   19.8333 C   0  0  0  0  0  0  0  0  0  0  0  0
    5.6712    0.1393   19.0023 C   0  0  0  0  0  0  0  0  0  0  0  0
    7.0274    0.0555   19.6378 C   0  0  0  0  0  0  0  0  0  0  0  0
    7.1866    0.3278   21.1042 C   0  0  0  0  0  0  0  0  0  0  0  0
    5.9897    0.6839   21.9352 C   0  0  0  0  0  0  0  0  0  0  0  0
 10 11  3  0  0  0
 11  4  1  0  0  0
  4  5  2  0  0  0
  5  6  1  0  0  0
  6  7  2  0  0  0
  7  1  1  0  0  0
  1 12  1  0  0  0
 12 13  1  0  0  0
 13 14  2  0  0  0
 14 15  1  0  0  0
 15 16  2  0  0  0
 16 17  1  0  0  0
 17 18  1  0  0  0
 17 19  2  0  0  0
  1  2  1  0  0  0
  2  3  2  0  0  0
  2 20  1  0  0  0
 20 21  1  0  0  0
 21 22  2  0  0  0
 22 23  1  0  0  0
 23 24  2  0  0  0
 24 25  1  0  0  0
 25 26  2  0  0  0
 26 27  1  0  0  0
 27 28  2  0  0  0
 28 29  1  0  0  0
 29 30  2  0  0  0
  7  8  1  0  0  0
  8  9  2  0  0  0
  9  4  1  0  0  0
 19 13  1  0  0  0
 30 21  1  0  0  0
 30 25  1  0  0  0
M  END
> <minimizedAffinity>
-7.70125

> <CNNscore>
0.7227817774

> <CNNaffinity>
6.5840406418

> <CNN_VS>
4.7588248253

> <CNNaffinity_variance>
0.0701405481

$$$$



 30 33  0  0  0  0  0  0  0  0999 V2000
    8.5293    0.4361   23.4373 N   0  0  0  0  0  0  0  0  0  0  0  0
    7.8358    0.8630   22.1776 C   0  0  0  0  0  0  0  0  0  0  0  0
    8.5272    1.7837   21.2161 O   0  0  0  0  0  0  0  0  0  0  0  0
    6.4556   -2.3259   26.3219 C   0  0  0  0  0  0  0  0  0  0  0  0
    7.2755   -2.8911   25.2002 C   0  0  0  0  0  0  0  0  0  0  0  0
    7.9668   -1.9705   24.2387 C   0  0  0  0  0  0  0  0  0  0  0  0
    7.8380   -0.4846   24.3989 C   0  0  0  0  0  0  0  0  0  0  0  0
    7.0181    0.0806   25.5206 C   0  0  0  0  0  0  0  0  0  0  0  0
    6.3268   -0.8401   26.4821 C   0  0  0  0  0  0  0  0  0  0  0  0
    5.0730   -4.1673   28.2450 N   0  0  0  0  0  0  0  0  0  0  0  0
    5.7643   -3.2466   27.2834 C   0  0  0  0  0  0  0  0  0  0  0  0
    9.9140    0.9298   23.7355 C   0  0  0  0  0  0  0  0  0  0  0  0
   11.0811   -0.0077   23.6410 C   0  0  0  0  0  0  0  0  0  0  0  0
   11.7252   -0.5318   24.8902 C   0  0  0  0  0  0  0  0  0  0  0  0
   12.8923   -1.4693   24.7957 C   0  0  0  0  0  0  0  0  0  0  0  0
   13.4153   -1.8828   23.4519 C   0  0  0  0  0  0  0  0  0  0  0  0
   12.7711   -1.3587   22.2028 C   0  0  0  0  0  0  0  0  0  0  0  0
   13.2941   -1.7721   20.8591 Cl  0  0  0  0  0  0  0  0  0  0  0  0
   11.6040   -0.4211   22.2973 C   0  0  0  0  0  0  0  0  0  0  0  0
    6.4512    0.3693   21.8794 C   0  0  0  0  0  0  0  0  0  0  0  0
    5.8580    0.5769   20.5174 C   0  0  0  0  0  0  0  0  0  0  0  0
    6.4809   -0.0781   19.3204 C   0  0  0  0  0  0  0  0  0  0  0  0
    5.8877    0.1294   17.9584 N   0  0  0  0  0  0  0  0  0  0  0  0
    4.6717    0.9920   17.7934 C   0  0  0  0  0  0  0  0  0  0  0  0
    4.0488    1.6471   18.9905 C   0  0  0  0  0  0  0  0  0  0  0  0
    2.8328    2.5097   18.8255 C   0  0  0  0  0  0  0  0  0  0  0  0
    2.2100    3.1647   20.0226 C   0  0  0  0  0  0  0  0  0  0  0  0
    2.8032    2.9572   21.3846 C   0  0  0  0  0  0  0  0  0  0  0  0
    4.0191    2.0946   21.5495 C   0  0  0  0  0  0  0  0  0  0  0  0
    4.6420    1.4396   20.3525 C   0  0  0  0  0  0  0  0  0  0  0  0
 10 11  3  0  0  0
 11  4  1  0  0  0
  4  5  2  0  0  0
  5  6  1  0  0  0
  6  7  2  0  0  0
  7  1  1  0  0  0
  1 12  1  0  0  0
 12 13  1  0  0  0
 13 14  2  0  0  0
 14 15  1  0  0  0
 15 16  2  0  0  0
 16 17  1  0  0  0
 17 18  1  0  0  0
 17 19  2  0  0  0
  1  2  1  0  0  0
  2  3  2  0  0  0
  2 20  1  0  0  0
 20 21  1  0  0  0
 21 22  2  0  0  0
 22 23  1  0  0  0
 23 24  2  0  0  0
 24 25  1  0  0  0
 25 26  2  0  0  0
 26 27  1  0  0  0
 27 28  2  0  0  0
 28 29  1  0  0  0
 29 30  2  0  0  0
  7  8  1  0  0  0
  8  9  2  0  0  0
  9  4  1  0  0  0
 19 13  1  0  0  0
 30 21  1  0  0  0
 30 25  1  0  0  0
M  END
> <minimizedAffinity>
-7.30483

> <CNNscore>
0.6550442576

> <CNNaffinity>
6.4157814980

> <CNN_VS>
4.2026209831

> <CNNaffinity_variance>
0.0879586339

$$$$



 30 33  0  0  0  0  0  0  0  0999 V2000
    8.0244   -1.2607   22.8991 N   0  0  0  0  0  0  0  0  0  0  0  0
    6.5902   -1.0245   22.5287 C   0  0  0  0  0  0  0  0  0  0  0  0
    5.6014   -2.1501   22.6020 O   0  0  0  0  0  0  0  0  0  0  0  0
   10.9908    2.1160   22.6791 C   0  0  0  0  0  0  0  0  0  0  0  0
   11.4048    0.7895   23.2439 C   0  0  0  0  0  0  0  0  0  0  0  0
   10.4161   -0.3361   23.3173 C   0  0  0  0  0  0  0  0  0  0  0  0
    9.0132   -0.1352   22.8257 C   0  0  0  0  0  0  0  0  0  0  0  0
    8.5991    1.1913   22.2609 C   0  0  0  0  0  0  0  0  0  0  0  0
    9.5879    2.3169   22.1876 C   0  0  0  0  0  0  0  0  0  0  0  0
   12.9684    4.3671   22.5324 N   0  0  0  0  0  0  0  0  0  0  0  0
   11.9795    3.2415   22.6058 C   0  0  0  0  0  0  0  0  0  0  0  0
    8.4698   -2.6227   23.3429 C   0  0  0  0  0  0  0  0  0  0  0  0
    7.4579   -3.7075   23.5645 C   0  0  0  0  0  0  0  0  0  0  0  0
    6.8639   -3.9121   24.9266 C   0  0  0  0  0  0  0  0  0  0  0  0
    5.8519   -4.9969   25.1482 C   0  0  0  0  0  0  0  0  0  0  0  0
    5.4340   -5.8771   24.0077 C   0  0  0  0  0  0  0  0  0  0  0  0
    6.0280   -5.6724   22.6457 C   0  0  0  0  0  0  0  0  0  0  0  0
    5.6100   -6.5526   21.5053 Cl  0  0  0  0  0  0  0  0  0  0  0  0
    7.0399   -4.5876   22.4241 C   0  0  0  0  0  0  0  0  0  0  0  0
    6.1447    0.3373   22.0849 C   0  0  0  0  0  0  0  0  0  0  0  0
    5.6683    0.5493   20.6785 C   0  0  0  0  0  0  0  0  0  0  0  0
    6.4013   -0.0862   19.5345 C   0  0  0  0  0  0  0  0  0  0  0  0
    5.9248    0.1258   18.1280 N   0  0  0  0  0  0  0  0  0  0  0  0
    4.7153    0.9732   17.8656 C   0  0  0  0  0  0  0  0  0  0  0  0
    3.9822    1.6087   19.0097 C   0  0  0  0  0  0  0  0  0  0  0  0
    2.7726    2.4561   18.7472 C   0  0  0  0  0  0  0  0  0  0  0  0
    2.0396    3.0915   19.8912 C   0  0  0  0  0  0  0  0  0  0  0  0
    2.5161    2.8795   21.2977 C   0  0  0  0  0  0  0  0  0  0  0  0
    3.7256    2.0322   21.5601 C   0  0  0  0  0  0  0  0  0  0  0  0
    4.4586    1.3967   20.4161 C   0  0  0  0  0  0  0  0  0  0  0  0
 10 11  3  0  0  0
 11  4  1  0  0  0
  4  5  2  0  0  0
  5  6  1  0  0  0
  6  7  2  0  0  0
  7  1  1  0  0  0
  1 12  1  0  0  0
 12 13  1  0  0  0
 13 14  2  0  0  0
 14 15  1  0  0  0
 15 16  2  0  0  0
 16 17  1  0  0  0
 17 18  1  0  0  0
 17 19  2  0  0  0
  1  2  1  0  0  0
  2  3  2  0  0  0
  2 20  1  0  0  0
 20 21  1  0  0  0
 21 22  2  0  0  0
 22 23  1  0  0  0
 23 24  2  0  0  0
 24 25  1  0  0  0
 25 26  2  0  0  0
 26 27  1  0  0  0
 27 28  2  0  0  0
 28 29  1  0  0  0
 29 30  2  0  0  0
  7  8  1  0  0  0
  8  9  2  0  0  0
  9  4  1  0  0  0
 19 13  1  0  0  0
 30 21  1  0  0  0
 30 25  1  0  0  0
M  END
> <minimizedAffinity>
-7.20742

> <CNNscore>
0.5375902057

> <CNNaffinity>
6.2817573547

> <CNN_VS>
3.3770112991

> <CNNaffinity_variance>
0.1228528619

$$$$



 30 33  0  0  0  0  0  0  0  0999 V2000
    8.9113   -0.1002   23.5968 N   0  0  0  0  0  0  0  0  0  0  0  0
    8.2540   -0.8720   22.4912 C   0  0  0  0  0  0  0  0  0  0  0  0
    7.5203   -2.1439   22.7977 O   0  0  0  0  0  0  0  0  0  0  0  0
   11.1122    3.7156   22.6774 C   0  0  0  0  0  0  0  0  0  0  0  0
    9.6395    3.7488   22.9602 C   0  0  0  0  0  0  0  0  0  0  0  0
    8.9058    2.4769   23.2667 C   0  0  0  0  0  0  0  0  0  0  0  0
    9.6449    1.1717   23.2903 C   0  0  0  0  0  0  0  0  0  0  0  0
   11.1176    1.1386   23.0075 C   0  0  0  0  0  0  0  0  0  0  0  0
   11.8513    2.4106   22.7010 C   0  0  0  0  0  0  0  0  0  0  0  0
   12.5796    6.2595   22.0644 N   0  0  0  0  0  0  0  0  0  0  0  0
   11.8458    4.9875   22.3709 C   0  0  0  0  0  0  0  0  0  0  0  0
    8.8348   -0.6004   25.0089 C   0  0  0  0  0  0  0  0  0  0  0  0
    9.7853   -1.6601   25.4817 C   0  0  0  0  0  0  0  0  0  0  0  0
    9.2618   -2.9958   25.9198 C   0  0  0  0  0  0  0  0  0  0  0  0
   10.2124   -4.0555   26.3925 C   0  0  0  0  0  0  0  0  0  0  0  0
   11.6864   -3.7795   26.4272 C   0  0  0  0  0  0  0  0  0  0  0  0
   12.2098   -2.4438   25.9891 C   0  0  0  0  0  0  0  0  0  0  0  0
   13.6838   -2.1679   26.0238 Cl  0  0  0  0  0  0  0  0  0  0  0  0
   11.2593   -1.3841   25.5164 C   0  0  0  0  0  0  0  0  0  0  0  0
    8.3304   -0.3719   21.0791 C   0  0  0  0  0  0  0  0  0  0  0  0
    7.0724   -0.0501   20.3283 C   0  0  0  0  0  0  0  0  0  0  0  0
    6.9731   -0.3589   18.8638 C   0  0  0  0  0  0  0  0  0  0  0  0
    5.7151   -0.0371   18.1130 N   0  0  0  0  0  0  0  0  0  0  0  0
    4.5562    0.5935   18.8267 C   0  0  0  0  0  0  0  0  0  0  0  0
    4.6554    0.9024   20.2912 C   0  0  0  0  0  0  0  0  0  0  0  0
    3.4966    1.5330   21.0049 C   0  0  0  0  0  0  0  0  0  0  0  0
    3.5958    1.8418   22.4693 C   0  0  0  0  0  0  0  0  0  0  0  0
    4.8539    1.5200   23.2202 C   0  0  0  0  0  0  0  0  0  0  0  0
    6.0127    0.8894   22.5065 C   0  0  0  0  0  0  0  0  0  0  0  0
    5.9135    0.5806   21.0420 C   0  0  0  0  0  0  0  0  0  0  0  0
 10 11  3  0  0  0
 11  4  1  0  0  0
  4  5  2  0  0  0
  5  6  1  0  0  0
  6  7  2  0  0  0
  7  1  1  0  0  0
  1 12  1  0  0  0
 12 13  1  0  0  0
 13 14  2  0  0  0
 14 15  1  0  0  0
 15 16  2  0  0  0
 16 17  1  0  0  0
 17 18  1  0  0  0
 17 19  2  0  0  0
  1  2  1  0  0  0
  2  3  2  0  0  0
  2 20  1  0  0  0
 20 21  1  0  0  0
 21 22  2  0  0  0
 22 23  1  0  0  0
 23 24  2  0  0  0
 24 25  1  0  0  0
 25 26  2  0  0  0
 26 27  1  0  0  0
 27 28  2  0  0  0
 28 29  1  0  0  0
 29 30  2  0  0  0
  7  8  1  0  0  0
  8  9  2  0  0  0
  9  4  1  0  0  0
 19 13  1  0  0  0
 30 21  1  0  0  0
 30 25  1  0  0  0
M  END
> <minimizedAffinity>
-8.09668

> <CNNscore>
0.5346839428

> <CNNaffinity>
6.3812856674

> <CNN_VS>
3.4119710922

> <CNNaffinity_variance>
0.1223975420

$$$$



 30 33  0  0  0  0  0  0  0  0999 V2000
    9.4092   -0.2101   23.0762 N   0  0  0  0  0  0  0  0  0  0  0  0
    8.7855    1.0022   22.4507 C   0  0  0  0  0  0  0  0  0  0  0  0
    9.6506    2.1388   21.9925 O   0  0  0  0  0  0  0  0  0  0  0  0
    6.8142   -3.6198   24.4510 C   0  0  0  0  0  0  0  0  0  0  0  0
    6.9049   -2.3679   25.2723 C   0  0  0  0  0  0  0  0  0  0  0  0
    7.7699   -1.2313   24.8140 C   0  0  0  0  0  0  0  0  0  0  0  0
    8.5442   -1.3467   23.5345 C   0  0  0  0  0  0  0  0  0  0  0  0
    8.4535   -2.5986   22.7132 C   0  0  0  0  0  0  0  0  0  0  0  0
    7.5884   -3.7351   23.1715 C   0  0  0  0  0  0  0  0  0  0  0  0
    5.0842   -5.8930   25.3675 N   0  0  0  0  0  0  0  0  0  0  0  0
    5.9492   -4.7563   24.9092 C   0  0  0  0  0  0  0  0  0  0  0  0
   10.8980   -0.2859   23.2435 C   0  0  0  0  0  0  0  0  0  0  0  0
   11.4891   -1.1531   24.3152 C   0  0  0  0  0  0  0  0  0  0  0  0
   12.9682   -1.1342   24.5644 C   0  0  0  0  0  0  0  0  0  0  0  0
   13.5593   -2.0014   25.6361 C   0  0  0  0  0  0  0  0  0  0  0  0
   12.6713   -2.8875   26.4586 C   0  0  0  0  0  0  0  0  0  0  0  0
   11.1923   -2.9063   26.2094 C   0  0  0  0  0  0  0  0  0  0  0  0
   10.3044   -3.7924   27.0319 Cl  0  0  0  0  0  0  0  0  0  0  0  0
   10.6012   -2.0391   25.1377 C   0  0  0  0  0  0  0  0  0  0  0  0
    7.2969    1.0780   22.2834 C   0  0  0  0  0  0  0  0  0  0  0  0
    6.6778    0.8063   20.9444 C   0  0  0  0  0  0  0  0  0  0  0  0
    7.2995   -0.1988   20.0207 C   0  0  0  0  0  0  0  0  0  0  0  0
    6.6804   -0.4705   18.6817 N   0  0  0  0  0  0  0  0  0  0  0  0
    5.4397    0.2629   18.2664 C   0  0  0  0  0  0  0  0  0  0  0  0
    4.8179    1.2681   19.1900 C   0  0  0  0  0  0  0  0  0  0  0  0
    3.5772    2.0015   18.7747 C   0  0  0  0  0  0  0  0  0  0  0  0
    2.9555    3.0066   19.6983 C   0  0  0  0  0  0  0  0  0  0  0  0
    3.5745    3.2783   21.0374 C   0  0  0  0  0  0  0  0  0  0  0  0
    4.8153    2.5449   21.4527 C   0  0  0  0  0  0  0  0  0  0  0  0
    5.4370    1.5398   20.5291 C   0  0  0  0  0  0  0  0  0  0  0  0
 10 11  3  0  0  0
 11  4  1  0  0  0
  4  5  2  0  0  0
  5  6  1  0  0  0
  6  7  2  0  0  0
  7  1  1  0  0  0
  1 12  1  0  0  0
 12 13  1  0  0  0
 13 14  2  0  0  0
 14 15  1  0  0  0
 15 16  2  0  0  0
 16 17  1  0  0  0
 17 18  1  0  0  0
 17 19  2  0  0  0
  1  2  1  0  0  0
  2  3  2  0  0  0
  2 20  1  0  0  0
 20 21  1  0  0  0
 21 22  2  0  0  0
 22 23  1  0  0  0
 23 24  2  0  0  0
 24 25  1  0  0  0
 25 26  2  0  0  0
 26 27  1  0  0  0
 27 28  2  0  0  0
 28 29  1  0  0  0
 29 30  2  0  0  0
  7  8  1  0  0  0
  8  9  2  0  0  0
  9  4  1  0  0  0
 19 13  1  0  0  0
 30 21  1  0  0  0
 30 25  1  0  0  0
M  END
> <minimizedAffinity>
-8.08677

> <CNNscore>
0.4992026091

> <CNNaffinity>
6.3533601761

> <CNN_VS>
3.1716139317

> <CNNaffinity_variance>
0.0744887143

$$$$
