


 31 33  0  0  0  0  0  0  0  0999 V2000
   -8.7308   -2.2045  -23.6056 N   0  0  0  0  0  0  0  0  0  0  0  0
   -7.6831   -1.9055  -22.5746 C   0  0  0  0  0  0  0  0  0  0  0  0
   -6.3016   -2.4706  -22.7235 O   0  0  0  0  0  0  0  0  0  0  0  0
   -8.0170   -1.0416  -21.3948 N   0  0  0  0  0  0  0  0  0  0  0  0
   -8.9237   -0.6707  -21.2971 H   0  0  0  0  0  0  0  0  0  0  0  0
   -6.9693   -0.7427  -20.3637 C   0  0  0  0  0  0  0  0  0  0  0  0
   -6.9708   -1.4797  -19.0574 C   0  0  0  0  0  0  0  0  0  0  0  0
   -5.9231   -1.1808  -18.0263 N   0  0  0  0  0  0  0  0  0  0  0  0
   -4.8739   -0.1448  -18.3017 C   0  0  0  0  0  0  0  0  0  0  0  0
   -4.8724    0.5923  -19.6081 C   0  0  0  0  0  0  0  0  0  0  0  0
   -3.8232    1.6283  -19.8834 C   0  0  0  0  0  0  0  0  0  0  0  0
   -3.8217    2.3654  -21.1898 C   0  0  0  0  0  0  0  0  0  0  0  0
   -4.8694    2.0665  -22.2208 C   0  0  0  0  0  0  0  0  0  0  0  0
   -5.9185    1.0305  -21.9455 C   0  0  0  0  0  0  0  0  0  0  0  0
   -5.9201    0.2934  -20.6391 C   0  0  0  0  0  0  0  0  0  0  0  0
  -10.1123   -1.6394  -23.4568 C   0  0  0  0  0  0  0  0  0  0  0  0
  -10.4115   -0.2521  -23.9425 C   0  0  0  0  0  0  0  0  0  0  0  0
  -11.7930    0.3130  -23.7937 C   0  0  0  0  0  0  0  0  0  0  0  0
  -12.8753   -0.5092  -23.1592 C   0  0  0  0  0  0  0  0  0  0  0  0
  -12.5761   -1.8965  -22.6735 C   0  0  0  0  0  0  0  0  0  0  0  0
  -13.6584   -2.7187  -22.0390 Cl  0  0  0  0  0  0  0  0  0  0  0  0
  -11.1946   -2.4616  -22.8223 C   0  0  0  0  0  0  0  0  0  0  0  0
   -8.3969   -3.0685  -24.7855 C   0  0  0  0  0  0  0  0  0  0  0  0
  -10.3103   -4.6719  -25.5053 C   0  0  0  0  0  0  0  0  0  0  0  0
   -8.9624   -4.4543  -24.8842 C   0  0  0  0  0  0  0  0  0  0  0  0
   -8.1799   -5.6225  -24.3618 C   0  0  0  0  0  0  0  0  0  0  0  0
   -7.7213   -6.6983  -25.3011 O   0  0  0  0  0  0  0  0  0  0  0  0
   -7.8559   -5.7149  -22.9001 N   0  0  0  0  0  0  0  0  0  0  0  0
   -8.1569   -5.0088  -22.2836 H   0  0  0  0  0  0  0  0  0  0  0  0
   -7.0735   -6.8831  -22.3777 C   0  0  0  0  0  0  0  0  0  0  0  0
   -5.8581   -6.6527  -21.5292 C   0  0  0  0  0  0  0  0  0  0  0  0
 24 25  2  0  0  0
 25 23  1  0  0  0
 23  1  1  0  0  0
  1  2  1  0  0  0
  2  3  2  0  0  0
  2  4  1  0  0  0
  4  6  1  0  0  0
  6  7  2  0  0  0
  7  8  1  0  0  0
  8  9  2  0  0  0
  9 10  1  0  0  0
 10 11  2  0  0  0
 11 12  1  0  0  0
 12 13  2  0  0  0
 13 14  1  0  0  0
 14 15  2  0  0  0
  1 16  1  0  0  0
 16 17  2  0  0  0
 17 18  1  0  0  0
 18 19  2  0  0  0
 19 20  1  0  0  0
 20 21  1  0  0  0
 20 22  2  0  0  0
 25 26  1  0  0  0
 26 27  2  0  0  0
 26 28  1  0  0  0
 28 30  1  0  0  0
 30 31  1  0  0  0
 15  6  1  0  0  0
 22 16  1  0  0  0
 15 10  1  0  0  0
  4  5  1  0  0  0
 28 29  1  0  0  0
M  END
> <minimizedAffinity>
-8.30750

> <CNNscore>
0.6613030434

> <CNNaffinity>
6.3116092682

> <CNN_VS>
4.1738862991

> <CNNaffinity_variance>
0.2347610891

$$$$



 31 33  0  0  0  0  0  0  0  0999 V2000
   -6.9753   -4.6557  -22.8765 N   0  0  0  0  0  0  0  0  0  0  0  0
   -6.2985   -3.7688  -21.8738 C   0  0  0  0  0  0  0  0  0  0  0  0
   -5.0983   -4.2648  -21.1231 O   0  0  0  0  0  0  0  0  0  0  0  0
   -6.8219   -2.3858  -21.6219 N   0  0  0  0  0  0  0  0  0  0  0  0
   -7.6096   -2.0603  -22.1146 H   0  0  0  0  0  0  0  0  0  0  0  0
   -6.1451   -1.4989  -20.6192 C   0  0  0  0  0  0  0  0  0  0  0  0
   -6.5752   -1.5265  -19.1825 C   0  0  0  0  0  0  0  0  0  0  0  0
   -5.8984   -0.6395  -18.1799 N   0  0  0  0  0  0  0  0  0  0  0  0
   -4.7916    0.2750  -18.6139 C   0  0  0  0  0  0  0  0  0  0  0  0
   -4.3615    0.3027  -20.0507 C   0  0  0  0  0  0  0  0  0  0  0  0
   -3.2546    1.2172  -20.4848 C   0  0  0  0  0  0  0  0  0  0  0  0
   -2.8245    1.2448  -21.9215 C   0  0  0  0  0  0  0  0  0  0  0  0
   -3.5013    0.3578  -22.9242 C   0  0  0  0  0  0  0  0  0  0  0  0
   -4.6081   -0.5567  -22.4901 C   0  0  0  0  0  0  0  0  0  0  0  0
   -5.0382   -0.5843  -21.0534 C   0  0  0  0  0  0  0  0  0  0  0  0
   -8.1754   -4.1597  -23.6272 C   0  0  0  0  0  0  0  0  0  0  0  0
   -9.3844   -3.6831  -22.8780 C   0  0  0  0  0  0  0  0  0  0  0  0
  -10.5846   -3.1871  -23.6287 C   0  0  0  0  0  0  0  0  0  0  0  0
  -10.5758   -3.1678  -25.1286 C   0  0  0  0  0  0  0  0  0  0  0  0
   -9.3669   -3.6444  -25.8777 C   0  0  0  0  0  0  0  0  0  0  0  0
   -9.3581   -3.6250  -27.3776 Cl  0  0  0  0  0  0  0  0  0  0  0  0
   -8.1666   -4.1404  -25.1270 C   0  0  0  0  0  0  0  0  0  0  0  0
   -6.4518   -6.0387  -23.1284 C   0  0  0  0  0  0  0  0  0  0  0  0
   -5.7940   -5.7137  -25.6207 C   0  0  0  0  0  0  0  0  0  0  0  0
   -5.5048   -6.2867  -24.2649 C   0  0  0  0  0  0  0  0  0  0  0  0
   -4.2688   -7.1077  -24.0457 C   0  0  0  0  0  0  0  0  0  0  0  0
   -4.1760   -8.4910  -24.6183 O   0  0  0  0  0  0  0  0  0  0  0  0
   -3.1256   -6.5454  -23.2540 N   0  0  0  0  0  0  0  0  0  0  0  0
   -3.1865   -5.6375  -22.8782 H   0  0  0  0  0  0  0  0  0  0  0  0
   -1.8895   -7.3664  -23.0348 C   0  0  0  0  0  0  0  0  0  0  0  0
   -0.5461   -6.7010  -22.9856 C   0  0  0  0  0  0  0  0  0  0  0  0
 24 25  2  0  0  0
 25 23  1  0  0  0
 23  1  1  0  0  0
  1  2  1  0  0  0
  2  3  2  0  0  0
  2  4  1  0  0  0
  4  6  1  0  0  0
  6  7  2  0  0  0
  7  8  1  0  0  0
  8  9  2  0  0  0
  9 10  1  0  0  0
 10 11  2  0  0  0
 11 12  1  0  0  0
 12 13  2  0  0  0
 13 14  1  0  0  0
 14 15  2  0  0  0
  1 16  1  0  0  0
 16 17  2  0  0  0
 17 18  1  0  0  0
 18 19  2  0  0  0
 19 20  1  0  0  0
 20 21  1  0  0  0
 20 22  2  0  0  0
 25 26  1  0  0  0
 26 27  2  0  0  0
 26 28  1  0  0  0
 28 30  1  0  0  0
 30 31  1  0  0  0
 15  6  1  0  0  0
 22 16  1  0  0  0
 15 10  1  0  0  0
  4  5  1  0  0  0
 28 29  1  0  0  0
M  END
> <minimizedAffinity>
-7.16832

> <CNNscore>
0.6420240402

> <CNNaffinity>
6.1411833763

> <CNN_VS>
3.9427874088

> <CNNaffinity_variance>
0.0650188774

$$$$



 31 33  0  0  0  0  0  0  0  0999 V2000
   -7.4414   -2.8098  -23.8568 N   0  0  0  0  0  0  0  0  0  0  0  0
   -7.0911   -1.9568  -22.6737 C   0  0  0  0  0  0  0  0  0  0  0  0
   -7.8219   -0.6687  -22.4352 O   0  0  0  0  0  0  0  0  0  0  0  0
   -6.0101   -2.3918  -21.7292 N   0  0  0  0  0  0  0  0  0  0  0  0
   -5.5305   -3.2372  -21.8858 H   0  0  0  0  0  0  0  0  0  0  0  0
   -5.6597   -1.5388  -20.5462 C   0  0  0  0  0  0  0  0  0  0  0  0
   -6.2562   -1.8381  -19.2028 C   0  0  0  0  0  0  0  0  0  0  0  0
   -5.9058   -0.9851  -18.0198 N   0  0  0  0  0  0  0  0  0  0  0  0
   -4.9591    0.1672  -18.1801 C   0  0  0  0  0  0  0  0  0  0  0  0
   -4.3626    0.4666  -19.5235 C   0  0  0  0  0  0  0  0  0  0  0  0
   -3.4159    1.6189  -19.6837 C   0  0  0  0  0  0  0  0  0  0  0  0
   -2.8194    1.9183  -21.0271 C   0  0  0  0  0  0  0  0  0  0  0  0
   -3.1698    1.0652  -22.2102 C   0  0  0  0  0  0  0  0  0  0  0  0
   -4.1165   -0.0871  -22.0499 C   0  0  0  0  0  0  0  0  0  0  0  0
   -4.7129   -0.3864  -20.7065 C   0  0  0  0  0  0  0  0  0  0  0  0
   -6.7107   -4.0978  -24.0954 C   0  0  0  0  0  0  0  0  0  0  0  0
   -5.7364   -4.2083  -25.2306 C   0  0  0  0  0  0  0  0  0  0  0  0
   -5.0057   -5.4963  -25.4692 C   0  0  0  0  0  0  0  0  0  0  0  0
   -5.2492   -6.6740  -24.5726 C   0  0  0  0  0  0  0  0  0  0  0  0
   -6.2234   -6.5636  -23.4374 C   0  0  0  0  0  0  0  0  0  0  0  0
   -6.4669   -7.7412  -22.5408 Cl  0  0  0  0  0  0  0  0  0  0  0  0
   -6.9542   -5.2755  -23.1988 C   0  0  0  0  0  0  0  0  0  0  0  0
   -8.5225   -2.3747  -24.8013 C   0  0  0  0  0  0  0  0  0  0  0  0
  -10.1763   -4.3161  -25.2973 C   0  0  0  0  0  0  0  0  0  0  0  0
   -9.8949   -2.9709  -24.6961 C   0  0  0  0  0  0  0  0  0  0  0  0
  -10.9859   -2.2220  -23.9899 C   0  0  0  0  0  0  0  0  0  0  0  0
  -11.2453   -0.7829  -24.3239 O   0  0  0  0  0  0  0  0  0  0  0  0
  -11.8174   -2.9122  -22.9496 N   0  0  0  0  0  0  0  0  0  0  0  0
  -11.6471   -3.8567  -22.7304 H   0  0  0  0  0  0  0  0  0  0  0  0
  -12.9084   -2.1632  -22.2433 C   0  0  0  0  0  0  0  0  0  0  0  0
  -13.9150   -2.9070  -21.4166 C   0  0  0  0  0  0  0  0  0  0  0  0
 24 25  2  0  0  0
 25 23  1  0  0  0
 23  1  1  0  0  0
  1  2  1  0  0  0
  2  3  2  0  0  0
  2  4  1  0  0  0
  4  6  1  0  0  0
  6  7  2  0  0  0
  7  8  1  0  0  0
  8  9  2  0  0  0
  9 10  1  0  0  0
 10 11  2  0  0  0
 11 12  1  0  0  0
 12 13  2  0  0  0
 13 14  1  0  0  0
 14 15  2  0  0  0
  1 16  1  0  0  0
 16 17  2  0  0  0
 17 18  1  0  0  0
 18 19  2  0  0  0
 19 20  1  0  0  0
 20 21  1  0  0  0
 20 22  2  0  0  0
 25 26  1  0  0  0
 26 27  2  0  0  0
 26 28  1  0  0  0
 28 30  1  0  0  0
 30 31  1  0  0  0
 15  6  1  0  0  0
 22 16  1  0  0  0
 15 10  1  0  0  0
  4  5  1  0  0  0
 28 29  1  0  0  0
M  END
> <minimizedAffinity>
-7.79480

> <CNNscore>
0.6210502386

> <CNNaffinity>
6.1898012161

> <CNN_VS>
3.8441774845

> <CNNaffinity_variance>
0.3052293360

$$$$



 31 33  0  0  0  0  0  0  0  0999 V2000
   -7.1029   -4.7352  -22.6529 N   0  0  0  0  0  0  0  0  0  0  0  0
   -6.3867   -3.8028  -21.7215 C   0  0  0  0  0  0  0  0  0  0  0  0
   -5.1622   -4.2674  -20.9901 O   0  0  0  0  0  0  0  0  0  0  0  0
   -6.8950   -2.4058  -21.5213 N   0  0  0  0  0  0  0  0  0  0  0  0
   -7.6986   -2.1009  -22.0014 H   0  0  0  0  0  0  0  0  0  0  0  0
   -6.1788   -1.4733  -20.5899 C   0  0  0  0  0  0  0  0  0  0  0  0
   -6.5655   -1.4165  -19.1417 C   0  0  0  0  0  0  0  0  0  0  0  0
   -5.8493   -0.4840  -18.2102 N   0  0  0  0  0  0  0  0  0  0  0  0
   -4.7464    0.3915  -18.7269 C   0  0  0  0  0  0  0  0  0  0  0  0
   -4.3597    0.3347  -20.1751 C   0  0  0  0  0  0  0  0  0  0  0  0
   -3.2568    1.2103  -20.6918 C   0  0  0  0  0  0  0  0  0  0  0  0
   -2.8701    1.1534  -22.1399 C   0  0  0  0  0  0  0  0  0  0  0  0
   -3.5863    0.2209  -23.0714 C   0  0  0  0  0  0  0  0  0  0  0  0
   -4.6891   -0.6546  -22.5548 C   0  0  0  0  0  0  0  0  0  0  0  0
   -5.0759   -0.5977  -21.1066 C   0  0  0  0  0  0  0  0  0  0  0  0
   -8.3273   -4.2707  -23.3843 C   0  0  0  0  0  0  0  0  0  0  0  0
   -8.5582   -4.6937  -24.8048 C   0  0  0  0  0  0  0  0  0  0  0  0
   -9.7826   -4.2292  -25.5362 C   0  0  0  0  0  0  0  0  0  0  0  0
  -10.7762   -3.3416  -24.8471 C   0  0  0  0  0  0  0  0  0  0  0  0
  -10.5454   -2.9185  -23.4267 C   0  0  0  0  0  0  0  0  0  0  0  0
  -11.5391   -2.0309  -22.7376 Cl  0  0  0  0  0  0  0  0  0  0  0  0
   -9.3210   -3.3830  -22.6952 C   0  0  0  0  0  0  0  0  0  0  0  0
   -6.5946   -6.1322  -22.8530 C   0  0  0  0  0  0  0  0  0  0  0  0
   -4.1343   -6.8930  -23.1973 C   0  0  0  0  0  0  0  0  0  0  0  0
   -5.4273   -6.3827  -23.7612 C   0  0  0  0  0  0  0  0  0  0  0  0
   -5.5530   -6.1230  -25.2331 C   0  0  0  0  0  0  0  0  0  0  0  0
   -5.1229   -4.8030  -25.8012 O   0  0  0  0  0  0  0  0  0  0  0  0
   -6.1087   -7.1832  -26.1371 N   0  0  0  0  0  0  0  0  0  0  0  0
   -6.3910   -8.0495  -25.7642 H   0  0  0  0  0  0  0  0  0  0  0  0
   -6.2344   -6.9234  -27.6090 C   0  0  0  0  0  0  0  0  0  0  0  0
   -7.5690   -6.5737  -28.1977 C   0  0  0  0  0  0  0  0  0  0  0  0
 24 25  2  0  0  0
 25 23  1  0  0  0
 23  1  1  0  0  0
  1  2  1  0  0  0
  2  3  2  0  0  0
  2  4  1  0  0  0
  4  6  1  0  0  0
  6  7  2  0  0  0
  7  8  1  0  0  0
  8  9  2  0  0  0
  9 10  1  0  0  0
 10 11  2  0  0  0
 11 12  1  0  0  0
 12 13  2  0  0  0
 13 14  1  0  0  0
 14 15  2  0  0  0
  1 16  1  0  0  0
 16 17  2  0  0  0
 17 18  1  0  0  0
 18 19  2  0  0  0
 19 20  1  0  0  0
 20 21  1  0  0  0
 20 22  2  0  0  0
 25 26  1  0  0  0
 26 27  2  0  0  0
 26 28  1  0  0  0
 28 30  1  0  0  0
 30 31  1  0  0  0
 15  6  1  0  0  0
 22 16  1  0  0  0
 15 10  1  0  0  0
  4  5  1  0  0  0
 28 29  1  0  0  0
M  END
> <minimizedAffinity>
-7.21632

> <CNNscore>
0.6117727160

> <CNNaffinity>
6.1627674103

> <CNN_VS>
3.7702128887

> <CNNaffinity_variance>
0.0351438187

$$$$



 31 33  0  0  0  0  0  0  0  0999 V2000
   -8.9849   -1.6594  -23.3748 N   0  0  0  0  0  0  0  0  0  0  0  0
   -8.2956   -0.9855  -22.2255 C   0  0  0  0  0  0  0  0  0  0  0  0
   -8.8502    0.2890  -21.6613 O   0  0  0  0  0  0  0  0  0  0  0  0
   -7.0519   -1.5860  -21.6405 N   0  0  0  0  0  0  0  0  0  0  0  0
   -6.6879   -2.4225  -22.0108 H   0  0  0  0  0  0  0  0  0  0  0  0
   -6.3626   -0.9122  -20.4912 C   0  0  0  0  0  0  0  0  0  0  0  0
   -6.9121   -1.0493  -19.1023 C   0  0  0  0  0  0  0  0  0  0  0  0
   -6.2228   -0.3754  -17.9531 N   0  0  0  0  0  0  0  0  0  0  0  0
   -4.9840    0.4356  -18.1927 C   0  0  0  0  0  0  0  0  0  0  0  0
   -4.4344    0.5728  -19.5817 C   0  0  0  0  0  0  0  0  0  0  0  0
   -3.1956    1.3838  -19.8214 C   0  0  0  0  0  0  0  0  0  0  0  0
   -2.6460    1.5210  -21.2103 C   0  0  0  0  0  0  0  0  0  0  0  0
   -3.3353    0.8471  -22.3595 C   0  0  0  0  0  0  0  0  0  0  0  0
   -4.5741    0.0361  -22.1199 C   0  0  0  0  0  0  0  0  0  0  0  0
   -5.1237   -0.1011  -20.7309 C   0  0  0  0  0  0  0  0  0  0  0  0
   -8.4304   -2.9338  -23.9390 C   0  0  0  0  0  0  0  0  0  0  0  0
   -8.0639   -3.0141  -25.3913 C   0  0  0  0  0  0  0  0  0  0  0  0
   -7.5094   -4.2885  -25.9555 C   0  0  0  0  0  0  0  0  0  0  0  0
   -7.3214   -5.4827  -25.0675 C   0  0  0  0  0  0  0  0  0  0  0  0
   -7.6879   -5.4024  -23.6152 C   0  0  0  0  0  0  0  0  0  0  0  0
   -7.5000   -6.5965  -22.7271 Cl  0  0  0  0  0  0  0  0  0  0  0  0
   -8.2425   -4.1279  -23.0509 C   0  0  0  0  0  0  0  0  0  0  0  0
  -10.2288   -1.0588  -23.9598 C   0  0  0  0  0  0  0  0  0  0  0  0
  -11.8502   -2.7382  -22.8195 C   0  0  0  0  0  0  0  0  0  0  0  0
  -11.5663   -1.3658  -23.3543 C   0  0  0  0  0  0  0  0  0  0  0  0
  -12.6199   -0.3005  -23.2835 C   0  0  0  0  0  0  0  0  0  0  0  0
  -14.0713   -0.6782  -23.3105 O   0  0  0  0  0  0  0  0  0  0  0  0
  -12.2221    1.1425  -23.1858 N   0  0  0  0  0  0  0  0  0  0  0  0
  -11.2695    1.3904  -23.1681 H   0  0  0  0  0  0  0  0  0  0  0  0
  -13.2757    2.2078  -23.1150 C   0  0  0  0  0  0  0  0  0  0  0  0
  -13.1422    3.3304  -22.1292 C   0  0  0  0  0  0  0  0  0  0  0  0
 24 25  2  0  0  0
 25 23  1  0  0  0
 23  1  1  0  0  0
  1  2  1  0  0  0
  2  3  2  0  0  0
  2  4  1  0  0  0
  4  6  1  0  0  0
  6  7  2  0  0  0
  7  8  1  0  0  0
  8  9  2  0  0  0
  9 10  1  0  0  0
 10 11  2  0  0  0
 11 12  1  0  0  0
 12 13  2  0  0  0
 13 14  1  0  0  0
 14 15  2  0  0  0
  1 16  1  0  0  0
 16 17  2  0  0  0
 17 18  1  0  0  0
 18 19  2  0  0  0
 19 20  1  0  0  0
 20 21  1  0  0  0
 20 22  2  0  0  0
 25 26  1  0  0  0
 26 27  2  0  0  0
 26 28  1  0  0  0
 28 30  1  0  0  0
 30 31  1  0  0  0
 15  6  1  0  0  0
 22 16  1  0  0  0
 15 10  1  0  0  0
  4  5  1  0  0  0
 28 29  1  0  0  0
M  END
> <minimizedAffinity>
-8.26118

> <CNNscore>
0.6067391038

> <CNNaffinity>
6.3675122261

> <CNN_VS>
3.8634185791

> <CNNaffinity_variance>
0.3782766461

$$$$



 31 33  0  0  0  0  0  0  0  0999 V2000
   -8.8871   -2.7256  -23.2089 N   0  0  0  0  0  0  0  0  0  0  0  0
   -7.8115   -2.3208  -22.2450 C   0  0  0  0  0  0  0  0  0  0  0  0
   -6.4914   -3.0330  -22.2519 O   0  0  0  0  0  0  0  0  0  0  0  0
   -8.0560   -1.2038  -21.2742 N   0  0  0  0  0  0  0  0  0  0  0  0
   -8.9224   -0.7363  -21.2697 H   0  0  0  0  0  0  0  0  0  0  0  0
   -6.9804   -0.7989  -20.3102 C   0  0  0  0  0  0  0  0  0  0  0  0
   -6.8989   -1.4492  -18.9610 C   0  0  0  0  0  0  0  0  0  0  0  0
   -5.8233   -1.0443  -17.9971 N   0  0  0  0  0  0  0  0  0  0  0  0
   -4.8291    0.0107  -18.3824 C   0  0  0  0  0  0  0  0  0  0  0  0
   -4.9106    0.6610  -19.7317 C   0  0  0  0  0  0  0  0  0  0  0  0
   -3.9164    1.7160  -20.1170 C   0  0  0  0  0  0  0  0  0  0  0  0
   -3.9979    2.3662  -21.4663 C   0  0  0  0  0  0  0  0  0  0  0  0
   -5.0735    1.9614  -22.4302 C   0  0  0  0  0  0  0  0  0  0  0  0
   -6.0677    0.9064  -22.0449 C   0  0  0  0  0  0  0  0  0  0  0  0
   -5.9862    0.2562  -20.6956 C   0  0  0  0  0  0  0  0  0  0  0  0
  -10.2072   -2.0134  -23.2020 C   0  0  0  0  0  0  0  0  0  0  0  0
  -10.3123   -0.6231  -23.7554 C   0  0  0  0  0  0  0  0  0  0  0  0
  -11.6324    0.0891  -23.7486 C   0  0  0  0  0  0  0  0  0  0  0  0
  -12.8475   -0.5889  -23.1884 C   0  0  0  0  0  0  0  0  0  0  0  0
  -12.7425   -1.9792  -22.6350 C   0  0  0  0  0  0  0  0  0  0  0  0
  -13.9576   -2.6572  -22.0748 Cl  0  0  0  0  0  0  0  0  0  0  0  0
  -11.4223   -2.6914  -22.6418 C   0  0  0  0  0  0  0  0  0  0  0  0
   -8.6426   -3.8427  -24.1797 C   0  0  0  0  0  0  0  0  0  0  0  0
   -7.7562   -2.1610  -25.9508 C   0  0  0  0  0  0  0  0  0  0  0  0
   -7.9278   -3.5717  -25.4703 C   0  0  0  0  0  0  0  0  0  0  0  0
   -7.3846   -4.7112  -26.2804 C   0  0  0  0  0  0  0  0  0  0  0  0
   -7.4118   -4.6462  -27.7787 O   0  0  0  0  0  0  0  0  0  0  0  0
   -6.8141   -5.9158  -25.5922 N   0  0  0  0  0  0  0  0  0  0  0  0
   -6.7963   -5.9584  -24.6088 H   0  0  0  0  0  0  0  0  0  0  0  0
   -6.2709   -7.0553  -26.4023 C   0  0  0  0  0  0  0  0  0  0  0  0
   -4.8769   -7.5521  -26.1574 C   0  0  0  0  0  0  0  0  0  0  0  0
 24 25  2  0  0  0
 25 23  1  0  0  0
 23  1  1  0  0  0
  1  2  1  0  0  0
  2  3  2  0  0  0
  2  4  1  0  0  0
  4  6  1  0  0  0
  6  7  2  0  0  0
  7  8  1  0  0  0
  8  9  2  0  0  0
  9 10  1  0  0  0
 10 11  2  0  0  0
 11 12  1  0  0  0
 12 13  2  0  0  0
 13 14  1  0  0  0
 14 15  2  0  0  0
  1 16  1  0  0  0
 16 17  2  0  0  0
 17 18  1  0  0  0
 18 19  2  0  0  0
 19 20  1  0  0  0
 20 21  1  0  0  0
 20 22  2  0  0  0
 25 26  1  0  0  0
 26 27  2  0  0  0
 26 28  1  0  0  0
 28 30  1  0  0  0
 30 31  1  0  0  0
 15  6  1  0  0  0
 22 16  1  0  0  0
 15 10  1  0  0  0
  4  5  1  0  0  0
 28 29  1  0  0  0
M  END
> <minimizedAffinity>
-7.63777

> <CNNscore>
0.6011227369

> <CNNaffinity>
6.0772991180

> <CNN_VS>
3.6532027721

> <CNNaffinity_variance>
0.0458703786

$$$$



 31 33  0  0  0  0  0  0  0  0999 V2000
   -8.8347   -2.8012  -23.1616 N   0  0  0  0  0  0  0  0  0  0  0  0
   -7.7583   -2.3631  -22.2132 C   0  0  0  0  0  0  0  0  0  0  0  0
   -6.4334   -3.0664  -22.2059 O   0  0  0  0  0  0  0  0  0  0  0  0
   -8.0068   -1.2218  -21.2721 N   0  0  0  0  0  0  0  0  0  0  0  0
   -8.8763   -0.7602  -21.2769 H   0  0  0  0  0  0  0  0  0  0  0  0
   -6.9303   -0.7837  -20.3237 C   0  0  0  0  0  0  0  0  0  0  0  0
   -6.8170   -1.4223  -18.9713 C   0  0  0  0  0  0  0  0  0  0  0  0
   -5.7405   -0.9843  -18.0229 N   0  0  0  0  0  0  0  0  0  0  0  0
   -4.7775    0.0924  -18.4270 C   0  0  0  0  0  0  0  0  0  0  0  0
   -4.8909    0.7310  -19.7795 C   0  0  0  0  0  0  0  0  0  0  0  0
   -3.9278    1.8077  -20.1837 C   0  0  0  0  0  0  0  0  0  0  0  0
   -4.0412    2.4463  -21.5361 C   0  0  0  0  0  0  0  0  0  0  0  0
   -5.1176    2.0082  -22.4845 C   0  0  0  0  0  0  0  0  0  0  0  0
   -6.0807    0.9316  -22.0804 C   0  0  0  0  0  0  0  0  0  0  0  0
   -5.9673    0.2930  -20.7279 C   0  0  0  0  0  0  0  0  0  0  0  0
  -10.1596   -2.0979  -23.1689 C   0  0  0  0  0  0  0  0  0  0  0  0
  -10.2802   -0.7317  -23.7765 C   0  0  0  0  0  0  0  0  0  0  0  0
  -11.6050   -0.0284  -23.7838 C   0  0  0  0  0  0  0  0  0  0  0  0
  -12.8094   -0.6913  -23.1836 C   0  0  0  0  0  0  0  0  0  0  0  0
  -12.6888   -2.0574  -22.5761 C   0  0  0  0  0  0  0  0  0  0  0  0
  -13.8932   -2.7203  -21.9759 Cl  0  0  0  0  0  0  0  0  0  0  0  0
  -11.3639   -2.7607  -22.5687 C   0  0  0  0  0  0  0  0  0  0  0  0
   -8.5862   -3.9426  -24.1026 C   0  0  0  0  0  0  0  0  0  0  0  0
   -7.5222   -5.9828  -22.8962 C   0  0  0  0  0  0  0  0  0  0  0  0
   -7.4174   -4.8563  -23.8812 C   0  0  0  0  0  0  0  0  0  0  0  0
   -6.1440   -4.6436  -24.6447 C   0  0  0  0  0  0  0  0  0  0  0  0
   -5.1127   -5.7314  -24.7011 O   0  0  0  0  0  0  0  0  0  0  0  0
   -5.9017   -3.3431  -25.3517 N   0  0  0  0  0  0  0  0  0  0  0  0
   -6.5785   -2.6291  -25.3147 H   0  0  0  0  0  0  0  0  0  0  0  0
   -4.6282   -3.1303  -26.1152 C   0  0  0  0  0  0  0  0  0  0  0  0
   -4.5482   -3.5157  -27.5626 C   0  0  0  0  0  0  0  0  0  0  0  0
 24 25  2  0  0  0
 25 23  1  0  0  0
 23  1  1  0  0  0
  1  2  1  0  0  0
  2  3  2  0  0  0
  2  4  1  0  0  0
  4  6  1  0  0  0
  6  7  2  0  0  0
  7  8  1  0  0  0
  8  9  2  0  0  0
  9 10  1  0  0  0
 10 11  2  0  0  0
 11 12  1  0  0  0
 12 13  2  0  0  0
 13 14  1  0  0  0
 14 15  2  0  0  0
  1 16  1  0  0  0
 16 17  2  0  0  0
 17 18  1  0  0  0
 18 19  2  0  0  0
 19 20  1  0  0  0
 20 21  1  0  0  0
 20 22  2  0  0  0
 25 26  1  0  0  0
 26 27  2  0  0  0
 26 28  1  0  0  0
 28 30  1  0  0  0
 30 31  1  0  0  0
 15  6  1  0  0  0
 22 16  1  0  0  0
 15 10  1  0  0  0
  4  5  1  0  0  0
 28 29  1  0  0  0
M  END
> <minimizedAffinity>
-7.25633

> <CNNscore>
0.5898218155

> <CNNaffinity>
6.1940050125

> <CNN_VS>
3.6533591747

> <CNNaffinity_variance>
0.0890253857

$$$$



 31 33  0  0  0  0  0  0  0  0999 V2000
   -8.9251   -2.7273  -23.2144 N   0  0  0  0  0  0  0  0  0  0  0  0
   -7.8414   -2.3269  -22.2577 C   0  0  0  0  0  0  0  0  0  0  0  0
   -6.5206   -3.0377  -22.2805 O   0  0  0  0  0  0  0  0  0  0  0  0
   -8.0784   -1.2159  -21.2782 N   0  0  0  0  0  0  0  0  0  0  0  0
   -8.9452   -0.7494  -21.2633 H   0  0  0  0  0  0  0  0  0  0  0  0
   -6.9947   -0.8155  -20.3215 C   0  0  0  0  0  0  0  0  0  0  0  0
   -6.8912   -1.4844  -18.9830 C   0  0  0  0  0  0  0  0  0  0  0  0
   -5.8075   -1.0841  -18.0263 N   0  0  0  0  0  0  0  0  0  0  0  0
   -4.8273   -0.0148  -18.4081 C   0  0  0  0  0  0  0  0  0  0  0  0
   -4.9307    0.6541  -19.7468 C   0  0  0  0  0  0  0  0  0  0  0  0
   -3.9505    1.7234  -20.1286 C   0  0  0  0  0  0  0  0  0  0  0  0
   -4.0541    2.3923  -21.4672 C   0  0  0  0  0  0  0  0  0  0  0  0
   -5.1378    1.9919  -22.4239 C   0  0  0  0  0  0  0  0  0  0  0  0
   -6.1180    0.9227  -22.0420 C   0  0  0  0  0  0  0  0  0  0  0  0
   -6.0145    0.2538  -20.7035 C   0  0  0  0  0  0  0  0  0  0  0  0
  -10.2458   -2.0166  -23.1917 C   0  0  0  0  0  0  0  0  0  0  0  0
  -10.3598   -0.6277  -23.7467 C   0  0  0  0  0  0  0  0  0  0  0  0
  -11.6806    0.0830  -23.7240 C   0  0  0  0  0  0  0  0  0  0  0  0
  -12.8873   -0.5951  -23.1462 C   0  0  0  0  0  0  0  0  0  0  0  0
  -12.7734   -1.9840  -22.5911 C   0  0  0  0  0  0  0  0  0  0  0  0
  -13.9801   -2.6621  -22.0133 Cl  0  0  0  0  0  0  0  0  0  0  0  0
  -11.4526   -2.6947  -22.6138 C   0  0  0  0  0  0  0  0  0  0  0  0
   -8.6880   -3.8384  -24.1939 C   0  0  0  0  0  0  0  0  0  0  0  0
   -9.4239   -4.3057  -26.6414 C   0  0  0  0  0  0  0  0  0  0  0  0
   -8.5892   -3.5373  -25.6601 C   0  0  0  0  0  0  0  0  0  0  0  0
   -7.6558   -2.4679  -26.1449 C   0  0  0  0  0  0  0  0  0  0  0  0
   -8.0236   -1.6356  -27.3373 O   0  0  0  0  0  0  0  0  0  0  0  0
   -6.3546   -2.2309  -25.4373 N   0  0  0  0  0  0  0  0  0  0  0  0
   -6.1132   -2.7772  -24.6547 H   0  0  0  0  0  0  0  0  0  0  0  0
   -5.4212   -1.1615  -25.9221 C   0  0  0  0  0  0  0  0  0  0  0  0
   -4.1000   -0.9547  -25.2427 C   0  0  0  0  0  0  0  0  0  0  0  0
 24 25  2  0  0  0
 25 23  1  0  0  0
 23  1  1  0  0  0
  1  2  1  0  0  0
  2  3  2  0  0  0
  2  4  1  0  0  0
  4  6  1  0  0  0
  6  7  2  0  0  0
  7  8  1  0  0  0
  8  9  2  0  0  0
  9 10  1  0  0  0
 10 11  2  0  0  0
 11 12  1  0  0  0
 12 13  2  0  0  0
 13 14  1  0  0  0
 14 15  2  0  0  0
  1 16  1  0  0  0
 16 17  2  0  0  0
 17 18  1  0  0  0
 18 19  2  0  0  0
 19 20  1  0  0  0
 20 21  1  0  0  0
 20 22  2  0  0  0
 25 26  1  0  0  0
 26 27  2  0  0  0
 26 28  1  0  0  0
 28 30  1  0  0  0
 30 31  1  0  0  0
 15  6  1  0  0  0
 22 16  1  0  0  0
 15 10  1  0  0  0
  4  5  1  0  0  0
 28 29  1  0  0  0
M  END
> <minimizedAffinity>
-7.25318

> <CNNscore>
0.5653918982

> <CNNaffinity>
6.0590758324

> <CNN_VS>
3.4257524014

> <CNNaffinity_variance>
0.0966791138

$$$$



 31 33  0  0  0  0  0  0  0  0999 V2000
   -7.5124   -2.7376  -23.8236 N   0  0  0  0  0  0  0  0  0  0  0  0
   -7.1375   -1.8964  -22.6396 C   0  0  0  0  0  0  0  0  0  0  0  0
   -7.8663   -0.6132  -22.3703 O   0  0  0  0  0  0  0  0  0  0  0  0
   -6.0338   -2.3382  -21.7250 N   0  0  0  0  0  0  0  0  0  0  0  0
   -5.5555   -3.1804  -21.9017 H   0  0  0  0  0  0  0  0  0  0  0  0
   -5.6589   -1.4970  -20.5410 C   0  0  0  0  0  0  0  0  0  0  0  0
   -6.2418   -1.7983  -19.1922 C   0  0  0  0  0  0  0  0  0  0  0  0
   -5.8669   -0.9570  -18.0082 N   0  0  0  0  0  0  0  0  0  0  0  0
   -4.9090    0.1854  -18.1731 C   0  0  0  0  0  0  0  0  0  0  0  0
   -4.3259    0.4867  -19.5219 C   0  0  0  0  0  0  0  0  0  0  0  0
   -3.3680    1.6291  -19.6868 C   0  0  0  0  0  0  0  0  0  0  0  0
   -2.7851    1.9303  -21.0356 C   0  0  0  0  0  0  0  0  0  0  0  0
   -3.1600    1.0891  -22.2196 C   0  0  0  0  0  0  0  0  0  0  0  0
   -4.1179   -0.0533  -22.0547 C   0  0  0  0  0  0  0  0  0  0  0  0
   -4.7009   -0.3545  -20.7059 C   0  0  0  0  0  0  0  0  0  0  0  0
   -6.7837   -4.0207  -24.0929 C   0  0  0  0  0  0  0  0  0  0  0  0
   -5.8295   -4.1134  -25.2467 C   0  0  0  0  0  0  0  0  0  0  0  0
   -5.1008   -5.3964  -25.5160 C   0  0  0  0  0  0  0  0  0  0  0  0
   -5.3262   -6.5869  -24.6317 C   0  0  0  0  0  0  0  0  0  0  0  0
   -6.2802   -6.4942  -23.4780 C   0  0  0  0  0  0  0  0  0  0  0  0
   -6.5056   -7.6846  -22.5936 Cl  0  0  0  0  0  0  0  0  0  0  0  0
   -7.0090   -5.2111  -23.2086 C   0  0  0  0  0  0  0  0  0  0  0  0
   -8.6162   -2.2956  -24.7382 C   0  0  0  0  0  0  0  0  0  0  0  0
  -10.8592   -3.5410  -24.3284 C   0  0  0  0  0  0  0  0  0  0  0  0
   -9.6573   -3.2780  -25.1865 C   0  0  0  0  0  0  0  0  0  0  0  0
   -9.4965   -3.9974  -26.4929 C   0  0  0  0  0  0  0  0  0  0  0  0
   -9.2725   -3.2188  -27.7552 O   0  0  0  0  0  0  0  0  0  0  0  0
   -9.5598   -5.4955  -26.5368 N   0  0  0  0  0  0  0  0  0  0  0  0
   -9.7068   -6.0065  -25.7083 H   0  0  0  0  0  0  0  0  0  0  0  0
   -9.3990   -6.2149  -27.8432 C   0  0  0  0  0  0  0  0  0  0  0  0
   -8.0302   -6.5873  -28.3308 C   0  0  0  0  0  0  0  0  0  0  0  0
 24 25  2  0  0  0
 25 23  1  0  0  0
 23  1  1  0  0  0
  1  2  1  0  0  0
  2  3  2  0  0  0
  2  4  1  0  0  0
  4  6  1  0  0  0
  6  7  2  0  0  0
  7  8  1  0  0  0
  8  9  2  0  0  0
  9 10  1  0  0  0
 10 11  2  0  0  0
 11 12  1  0  0  0
 12 13  2  0  0  0
 13 14  1  0  0  0
 14 15  2  0  0  0
  1 16  1  0  0  0
 16 17  2  0  0  0
 17 18  1  0  0  0
 18 19  2  0  0  0
 19 20  1  0  0  0
 20 21  1  0  0  0
 20 22  2  0  0  0
 25 26  1  0  0  0
 26 27  2  0  0  0
 26 28  1  0  0  0
 28 30  1  0  0  0
 30 31  1  0  0  0
 15  6  1  0  0  0
 22 16  1  0  0  0
 15 10  1  0  0  0
  4  5  1  0  0  0
 28 29  1  0  0  0
M  END
> <minimizedAffinity>
-7.71602

> <CNNscore>
0.5552479625

> <CNNaffinity>
5.9270362854

> <CNN_VS>
3.2909748554

> <CNNaffinity_variance>
0.1331866235

$$$$
