


 42 47  0  0  0  0  0  0  0  0999 V2000
   -7.0251   -0.8948  -23.1594 N   0  0  0  0  0  0  0  0  0  0  0  0
   -7.4856    0.5233  -23.3235 C   0  0  0  0  0  0  0  0  0  0  0  0
   -8.9520    0.8340  -23.3789 C   0  0  0  0  0  0  0  0  0  0  0  0
  -10.3775    1.2953  -23.4505 C   0  0  0  0  0  0  0  0  0  0  0  0
  -11.5049    0.8435  -23.4165 O   0  0  0  0  0  0  0  0  0  0  0  0
  -10.3745    2.7862  -23.6161 N   0  0  0  0  0  0  0  0  0  0  0  0
   -8.9471    3.2462  -23.6468 C   0  0  0  0  0  0  0  0  0  0  0  0
   -8.0680    2.0397  -23.5002 C   0  0  0  0  0  0  0  0  0  0  0  0
   -9.9580   -0.2735  -23.2703 C   0  0  0  0  0  0  0  0  0  0  0  0
  -11.4244    0.0371  -23.3257 C   0  0  0  0  0  0  0  0  0  0  0  0
  -12.4302   -1.0703  -23.2171 C   0  0  0  0  0  0  0  0  0  0  0  0
  -13.8967   -0.7597  -23.2726 Cl  0  0  0  0  0  0  0  0  0  0  0  0
  -11.9696   -2.4884  -23.0530 C   0  0  0  0  0  0  0  0  0  0  0  0
  -10.5032   -2.7990  -22.9975 C   0  0  0  0  0  0  0  0  0  0  0  0
   -9.4974   -1.6916  -23.1062 C   0  0  0  0  0  0  0  0  0  0  0  0
   -8.0309   -2.0022  -23.0507 C   0  0  0  0  0  0  0  0  0  0  0  0
   -7.5703   -3.4203  -22.8866 O   0  0  0  0  0  0  0  0  0  0  0  0
  -11.5861    3.6630  -23.7308 C   0  0  0  0  0  0  0  0  0  0  0  0
  -12.4789    3.8678  -22.5429 C   0  0  0  0  0  0  0  0  0  0  0  0
  -13.6905    4.7446  -22.6576 N   0  0  0  0  0  0  0  0  0  0  0  0
  -14.0093    5.4166  -23.9602 C   0  0  0  0  0  0  0  0  0  0  0  0
  -13.1165    5.2118  -25.1481 C   0  0  0  0  0  0  0  0  0  0  0  0
  -13.4354    5.8838  -26.4507 C   0  0  0  0  0  0  0  0  0  0  0  0
  -12.5426    5.6790  -27.6385 C   0  0  0  0  0  0  0  0  0  0  0  0
  -11.3310    4.8021  -27.5238 C   0  0  0  0  0  0  0  0  0  0  0  0
  -11.0121    4.1302  -26.2213 C   0  0  0  0  0  0  0  0  0  0  0  0
  -11.9049    4.3350  -25.0334 C   0  0  0  0  0  0  0  0  0  0  0  0
   -5.5586   -1.2054  -23.1039 C   0  0  0  0  0  0  0  0  0  0  0  0
   -3.8570   -2.1186  -26.5710 C   0  0  0  0  0  0  0  0  0  0  0  0
   -4.6939   -2.2266  -25.3309 N   0  0  0  0  0  0  0  0  0  0  0  0
   -4.7217   -1.0973  -24.3440 C   0  0  0  0  0  0  0  0  0  0  0  0
   -3.9125    0.1401  -24.5973 O   0  0  0  0  0  0  0  0  0  0  0  0
   -5.2250   -3.0387  -25.1647 H   0  0  0  0  0  0  0  0  0  0  0  0
   -6.5681    2.0390  -23.4787 C   0  0  0  0  0  0  0  0  0  0  0  0
   -5.8311    2.9475  -22.5400 N   0  0  0  0  0  0  0  0  0  0  0  0
   -6.0154    3.9146  -22.5448 H   0  0  0  0  0  0  0  0  0  0  0  0
   -4.8132    2.3827  -21.5940 C   0  0  0  0  0  0  0  0  0  0  0  0
   -5.0574    1.3110  -20.5732 C   0  0  0  0  0  0  0  0  0  0  0  0
   -3.7676    1.0564  -19.8511 N   0  0  0  0  0  0  0  0  0  0  0  0
   -2.7263    1.9706  -20.4255 C   0  0  0  0  0  0  0  0  0  0  0  0
   -1.2908    2.0510  -19.9978 C   0  0  0  0  0  0  0  0  0  0  0  0
   -3.3726    2.7903  -21.5027 S   0  0  0  0  0  0  0  0  0  0  0  0
 29 30  1  0  0  0
 30 31  1  0  0  0
 31 32  2  0  0  0
 31 28  1  0  0  0
 28  1  1  0  0  0
  1  2  1  0  0  0
  3  2  1  0  0  0
  3  4  1  0  0  0
  4  5  2  0  0  0
  4  6  1  0  0  0
  6 18  1  0  0  0
 18 19  2  0  0  0
 19 20  1  0  0  0
 20 21  2  0  0  0
 21 22  1  0  0  0
 22 23  2  0  0  0
 23 24  1  0  0  0
 24 25  2  0  0  0
 25 26  1  0  0  0
 26 27  2  0  0  0
  6  7  1  0  0  0
  7  8  1  0  0  0
  8 34  1  0  0  0
 34 35  1  0  0  0
 35 37  1  0  0  0
 37 38  2  0  0  0
 38 39  1  0  0  0
 39 40  2  0  0  0
 40 41  1  0  0  0
 40 42  1  0  0  0
  3  9  1  0  0  0
  9 10  2  0  0  0
 10 11  1  0  0  0
 11 12  1  0  0  0
 11 13  2  0  0  0
 13 14  1  0  0  0
 14 15  2  0  0  0
 15 16  1  0  0  0
 16 17  2  0  0  0
 16  1  1  0  0  0
  8  3  1  0  0  0
 42 37  1  0  0  0
 15  9  1  0  0  0
 27 18  1  0  0  0
 27 22  1  0  0  0
 30 33  1  0  0  0
 35 36  1  0  0  0
M  END
> <minimizedAffinity>
-7.85000

> <CNNscore>
0.6723491549

> <CNNaffinity>
6.9775109291

> <CNN_VS>
4.6913237572

> <CNNaffinity_variance>
0.0920499340

$$$$



 42 47  0  0  0  0  0  0  0  0999 V2000
   -7.0159   -1.1643  -22.3727 N   0  0  0  0  0  0  0  0  0  0  0  0
   -7.1063    0.1556  -23.0796 C   0  0  0  0  0  0  0  0  0  0  0  0
   -8.4298    0.6444  -23.5891 C   0  0  0  0  0  0  0  0  0  0  0  0
   -9.6770    1.2603  -24.1504 C   0  0  0  0  0  0  0  0  0  0  0  0
  -10.8646    1.0260  -24.2561 O   0  0  0  0  0  0  0  0  0  0  0  0
   -9.3070    2.5767  -24.7670 N   0  0  0  0  0  0  0  0  0  0  0  0
   -7.8310    2.7743  -24.5868 C   0  0  0  0  0  0  0  0  0  0  0  0
   -7.2889    1.5801  -23.8588 C   0  0  0  0  0  0  0  0  0  0  0  0
   -9.6628   -0.1868  -23.3917 C   0  0  0  0  0  0  0  0  0  0  0  0
  -10.9862    0.3020  -23.9012 C   0  0  0  0  0  0  0  0  0  0  0  0
  -12.2192   -0.5292  -23.7038 C   0  0  0  0  0  0  0  0  0  0  0  0
  -13.5427   -0.0404  -24.2133 Cl  0  0  0  0  0  0  0  0  0  0  0  0
  -12.1287   -1.8491  -22.9969 C   0  0  0  0  0  0  0  0  0  0  0  0
  -10.8053   -2.3378  -22.4874 C   0  0  0  0  0  0  0  0  0  0  0  0
   -9.5723   -1.5067  -22.6848 C   0  0  0  0  0  0  0  0  0  0  0  0
   -8.2488   -1.9954  -22.1753 C   0  0  0  0  0  0  0  0  0  0  0  0
   -8.1583   -3.3153  -21.4685 O   0  0  0  0  0  0  0  0  0  0  0  0
  -10.2477    3.5283  -25.4448 C   0  0  0  0  0  0  0  0  0  0  0  0
  -10.0936    3.8208  -26.9079 C   0  0  0  0  0  0  0  0  0  0  0  0
  -11.0344    4.7724  -27.5857 N   0  0  0  0  0  0  0  0  0  0  0  0
  -12.1293    5.4315  -26.8003 C   0  0  0  0  0  0  0  0  0  0  0  0
  -12.2834    5.1389  -25.3372 C   0  0  0  0  0  0  0  0  0  0  0  0
  -13.3784    5.7981  -24.5518 C   0  0  0  0  0  0  0  0  0  0  0  0
  -13.5325    5.5055  -23.0887 C   0  0  0  0  0  0  0  0  0  0  0  0
  -12.5917    4.5539  -22.4110 C   0  0  0  0  0  0  0  0  0  0  0  0
  -11.4968    3.8948  -23.1963 C   0  0  0  0  0  0  0  0  0  0  0  0
  -11.3426    4.1873  -24.6594 C   0  0  0  0  0  0  0  0  0  0  0  0
   -5.6923   -1.6530  -21.8632 C   0  0  0  0  0  0  0  0  0  0  0  0
   -5.5227   -5.6179  -21.8926 C   0  0  0  0  0  0  0  0  0  0  0  0
   -5.6676   -4.2019  -22.3658 N   0  0  0  0  0  0  0  0  0  0  0  0
   -5.5474   -3.0690  -21.3900 C   0  0  0  0  0  0  0  0  0  0  0  0
   -5.2822   -3.3522  -19.9410 O   0  0  0  0  0  0  0  0  0  0  0  0
   -5.8416   -4.0161  -23.3168 H   0  0  0  0  0  0  0  0  0  0  0  0
   -5.8572    1.3603  -23.4690 C   0  0  0  0  0  0  0  0  0  0  0  0
   -5.0577    2.4865  -22.8841 N   0  0  0  0  0  0  0  0  0  0  0  0
   -5.1466    3.3957  -23.2510 H   0  0  0  0  0  0  0  0  0  0  0  0
   -4.1227    2.2276  -21.7401 C   0  0  0  0  0  0  0  0  0  0  0  0
   -4.4810    1.5717  -20.4396 C   0  0  0  0  0  0  0  0  0  0  0  0
   -3.2449    1.5178  -19.5916 N   0  0  0  0  0  0  0  0  0  0  0  0
   -2.1226    2.1404  -20.3680 C   0  0  0  0  0  0  0  0  0  0  0  0
   -0.7065    2.2969  -19.8989 C   0  0  0  0  0  0  0  0  0  0  0  0
   -2.6651    2.5791  -21.6959 S   0  0  0  0  0  0  0  0  0  0  0  0
 29 30  1  0  0  0
 30 31  1  0  0  0
 31 32  2  0  0  0
 31 28  1  0  0  0
 28  1  1  0  0  0
  1  2  1  0  0  0
  3  2  1  0  0  0
  3  4  1  0  0  0
  4  5  2  0  0  0
  4  6  1  0  0  0
  6 18  1  0  0  0
 18 19  2  0  0  0
 19 20  1  0  0  0
 20 21  2  0  0  0
 21 22  1  0  0  0
 22 23  2  0  0  0
 23 24  1  0  0  0
 24 25  2  0  0  0
 25 26  1  0  0  0
 26 27  2  0  0  0
  6  7  1  0  0  0
  7  8  1  0  0  0
  8 34  1  0  0  0
 34 35  1  0  0  0
 35 37  1  0  0  0
 37 38  2  0  0  0
 38 39  1  0  0  0
 39 40  2  0  0  0
 40 41  1  0  0  0
 40 42  1  0  0  0
  3  9  1  0  0  0
  9 10  2  0  0  0
 10 11  1  0  0  0
 11 12  1  0  0  0
 11 13  2  0  0  0
 13 14  1  0  0  0
 14 15  2  0  0  0
 15 16  1  0  0  0
 16 17  2  0  0  0
 16  1  1  0  0  0
  8  3  1  0  0  0
 42 37  1  0  0  0
 15  9  1  0  0  0
 27 18  1  0  0  0
 27 22  1  0  0  0
 30 33  1  0  0  0
 35 36  1  0  0  0
M  END
> <minimizedAffinity>
-7.74754

> <CNNscore>
0.3538574874

> <CNNaffinity>
6.6782379150

> <CNN_VS>
2.3631443977

> <CNNaffinity_variance>
0.1222762018

$$$$



 42 47  0  0  0  0  0  0  0  0999 V2000
  -11.5118    3.8334  -24.0451 N   0  0  0  0  0  0  0  0  0  0  0  0
  -10.1498    3.2332  -23.8589 C   0  0  0  0  0  0  0  0  0  0  0  0
  -10.0098    1.7718  -23.5510 C   0  0  0  0  0  0  0  0  0  0  0  0
   -9.7147    0.3342  -23.2409 C   0  0  0  0  0  0  0  0  0  0  0  0
  -10.2965   -0.7154  -23.0510 O   0  0  0  0  0  0  0  0  0  0  0  0
   -8.2263    0.1777  -23.1404 N   0  0  0  0  0  0  0  0  0  0  0  0
   -7.6015    1.5187  -23.3884 C   0  0  0  0  0  0  0  0  0  0  0  0
   -8.7038    2.5039  -23.6422 C   0  0  0  0  0  0  0  0  0  0  0  0
  -11.2320    0.9106  -23.4293 C   0  0  0  0  0  0  0  0  0  0  0  0
  -11.0921   -0.5508  -23.1215 C   0  0  0  0  0  0  0  0  0  0  0  0
  -12.3142   -1.4119  -22.9998 C   0  0  0  0  0  0  0  0  0  0  0  0
  -12.1743   -2.8733  -22.6919 Cl  0  0  0  0  0  0  0  0  0  0  0  0
  -13.6762   -0.8117  -23.1860 C   0  0  0  0  0  0  0  0  0  0  0  0
  -13.8161    0.6496  -23.4939 C   0  0  0  0  0  0  0  0  0  0  0  0
  -12.5940    1.5108  -23.6155 C   0  0  0  0  0  0  0  0  0  0  0  0
  -12.7339    2.9722  -23.9234 C   0  0  0  0  0  0  0  0  0  0  0  0
  -14.0959    3.5724  -24.1097 O   0  0  0  0  0  0  0  0  0  0  0  0
   -7.4917   -1.0960  -22.8440 C   0  0  0  0  0  0  0  0  0  0  0  0
   -6.8766   -1.3101  -21.4928 C   0  0  0  0  0  0  0  0  0  0  0  0
   -6.1420   -2.5838  -21.1963 N   0  0  0  0  0  0  0  0  0  0  0  0
   -6.0225   -3.6435  -22.2512 C   0  0  0  0  0  0  0  0  0  0  0  0
   -6.6375   -3.4295  -23.6024 C   0  0  0  0  0  0  0  0  0  0  0  0
   -6.5180   -4.4893  -24.6573 C   0  0  0  0  0  0  0  0  0  0  0  0
   -7.1330   -4.2751  -26.0086 C   0  0  0  0  0  0  0  0  0  0  0  0
   -7.8676   -3.0013  -26.3050 C   0  0  0  0  0  0  0  0  0  0  0  0
   -7.9872   -1.9416  -25.2501 C   0  0  0  0  0  0  0  0  0  0  0  0
   -7.3721   -2.1557  -23.8989 C   0  0  0  0  0  0  0  0  0  0  0  0
  -11.6517    5.2948  -24.3530 C   0  0  0  0  0  0  0  0  0  0  0  0
  -13.9936    6.5174  -27.3145 C   0  0  0  0  0  0  0  0  0  0  0  0
  -13.5429    6.0776  -25.9531 N   0  0  0  0  0  0  0  0  0  0  0  0
  -12.1023    5.7346  -25.7144 C   0  0  0  0  0  0  0  0  0  0  0  0
  -11.1123    5.8315  -26.8372 O   0  0  0  0  0  0  0  0  0  0  0  0
  -14.1927    6.0140  -25.2162 H   0  0  0  0  0  0  0  0  0  0  0  0
   -8.5304    3.9646  -23.9356 C   0  0  0  0  0  0  0  0  0  0  0  0
   -8.0912    4.9009  -22.8492 N   0  0  0  0  0  0  0  0  0  0  0  0
   -8.7288    5.1813  -22.1535 H   0  0  0  0  0  0  0  0  0  0  0  0
   -6.6805    5.4100  -22.8227 C   0  0  0  0  0  0  0  0  0  0  0  0
   -6.1808    6.5820  -22.0309 C   0  0  0  0  0  0  0  0  0  0  0  0
   -4.7133    6.7328  -22.3023 N   0  0  0  0  0  0  0  0  0  0  0  0
   -4.3060    5.6541  -23.2617 C   0  0  0  0  0  0  0  0  0  0  0  0
   -2.9253    5.4320  -23.8042 C   0  0  0  0  0  0  0  0  0  0  0  0
   -5.5218    4.8366  -23.5834 S   0  0  0  0  0  0  0  0  0  0  0  0
 29 30  1  0  0  0
 30 31  1  0  0  0
 31 32  2  0  0  0
 31 28  1  0  0  0
 28  1  1  0  0  0
  1  2  1  0  0  0
  3  2  1  0  0  0
  3  4  1  0  0  0
  4  5  2  0  0  0
  4  6  1  0  0  0
  6 18  1  0  0  0
 18 19  2  0  0  0
 19 20  1  0  0  0
 20 21  2  0  0  0
 21 22  1  0  0  0
 22 23  2  0  0  0
 23 24  1  0  0  0
 24 25  2  0  0  0
 25 26  1  0  0  0
 26 27  2  0  0  0
  6  7  1  0  0  0
  7  8  1  0  0  0
  8 34  1  0  0  0
 34 35  1  0  0  0
 35 37  1  0  0  0
 37 38  2  0  0  0
 38 39  1  0  0  0
 39 40  2  0  0  0
 40 41  1  0  0  0
 40 42  1  0  0  0
  3  9  1  0  0  0
  9 10  2  0  0  0
 10 11  1  0  0  0
 11 12  1  0  0  0
 11 13  2  0  0  0
 13 14  1  0  0  0
 14 15  2  0  0  0
 15 16  1  0  0  0
 16 17  2  0  0  0
 16  1  1  0  0  0
  8  3  1  0  0  0
 42 37  1  0  0  0
 15  9  1  0  0  0
 27 18  1  0  0  0
 27 22  1  0  0  0
 30 33  1  0  0  0
 35 36  1  0  0  0
M  END
> <minimizedAffinity>
-7.39293

> <CNNscore>
0.3507511318

> <CNNaffinity>
6.8458337784

> <CNN_VS>
2.4011838436

> <CNNaffinity_variance>
0.3054987788

$$$$



 42 47  0  0  0  0  0  0  0  0999 V2000
  -11.8048    3.9248  -24.0311 N   0  0  0  0  0  0  0  0  0  0  0  0
  -10.4143    3.3698  -23.9385 C   0  0  0  0  0  0  0  0  0  0  0  0
  -10.2064    1.9074  -23.6775 C   0  0  0  0  0  0  0  0  0  0  0  0
   -9.8442    0.4742  -23.4226 C   0  0  0  0  0  0  0  0  0  0  0  0
  -10.3774   -0.6000  -23.2276 O   0  0  0  0  0  0  0  0  0  0  0  0
   -8.3480    0.3692  -23.4110 N   0  0  0  0  0  0  0  0  0  0  0  0
   -7.7853    1.7374  -23.6588 C   0  0  0  0  0  0  0  0  0  0  0  0
   -8.9339    2.6880  -23.8235 C   0  0  0  0  0  0  0  0  0  0  0  0
  -11.3889    0.9999  -23.5093 C   0  0  0  0  0  0  0  0  0  0  0  0
  -11.1809   -0.4625  -23.2483 C   0  0  0  0  0  0  0  0  0  0  0  0
  -12.3634   -1.3699  -23.0801 C   0  0  0  0  0  0  0  0  0  0  0  0
  -12.1555   -2.8323  -22.8192 Cl  0  0  0  0  0  0  0  0  0  0  0  0
  -13.7538   -0.8148  -23.1728 C   0  0  0  0  0  0  0  0  0  0  0  0
  -13.9618    0.6475  -23.4337 C   0  0  0  0  0  0  0  0  0  0  0  0
  -12.7793    1.5549  -23.6019 C   0  0  0  0  0  0  0  0  0  0  0  0
  -12.9873    3.0174  -23.8629 C   0  0  0  0  0  0  0  0  0  0  0  0
  -14.3777    3.5724  -23.9556 O   0  0  0  0  0  0  0  0  0  0  0  0
   -7.5538   -0.8841  -23.1904 C   0  0  0  0  0  0  0  0  0  0  0  0
   -7.3806   -1.8689  -24.3085 C   0  0  0  0  0  0  0  0  0  0  0  0
   -6.5864   -3.1221  -24.0879 N   0  0  0  0  0  0  0  0  0  0  0  0
   -5.9655   -3.3906  -22.7491 C   0  0  0  0  0  0  0  0  0  0  0  0
   -6.1387   -2.4058  -21.6310 C   0  0  0  0  0  0  0  0  0  0  0  0
   -5.5177   -2.6743  -20.2922 C   0  0  0  0  0  0  0  0  0  0  0  0
   -5.6909   -1.6894  -19.1741 C   0  0  0  0  0  0  0  0  0  0  0  0
   -6.4851   -0.4362  -19.3947 C   0  0  0  0  0  0  0  0  0  0  0  0
   -7.1060   -0.1677  -20.7335 C   0  0  0  0  0  0  0  0  0  0  0  0
   -6.9328   -1.1525  -21.8516 C   0  0  0  0  0  0  0  0  0  0  0  0
  -12.0127    5.3872  -24.2921 C   0  0  0  0  0  0  0  0  0  0  0  0
  -13.9738    6.4943  -27.5599 C   0  0  0  0  0  0  0  0  0  0  0  0
  -13.7002    6.0127  -26.1659 N   0  0  0  0  0  0  0  0  0  0  0  0
  -12.2863    5.8689  -25.6861 C   0  0  0  0  0  0  0  0  0  0  0  0
  -11.1460    6.2067  -26.6002 O   0  0  0  0  0  0  0  0  0  0  0  0
  -14.4486    5.7910  -25.5659 H   0  0  0  0  0  0  0  0  0  0  0  0
   -8.8284    4.1608  -24.0878 C   0  0  0  0  0  0  0  0  0  0  0  0
   -8.3377    5.0828  -23.0113 N   0  0  0  0  0  0  0  0  0  0  0  0
   -8.9491    5.3752  -22.2972 H   0  0  0  0  0  0  0  0  0  0  0  0
   -6.9154    5.5592  -23.0226 C   0  0  0  0  0  0  0  0  0  0  0  0
   -6.3105    6.5519  -22.0746 C   0  0  0  0  0  0  0  0  0  0  0  0
   -4.8696    6.7328  -22.4500 N   0  0  0  0  0  0  0  0  0  0  0  0
   -4.5839    5.8520  -23.6301 C   0  0  0  0  0  0  0  0  0  0  0  0
   -3.2654    5.7198  -24.3329 C   0  0  0  0  0  0  0  0  0  0  0  0
   -5.8483    5.1267  -23.9840 S   0  0  0  0  0  0  0  0  0  0  0  0
 29 30  1  0  0  0
 30 31  1  0  0  0
 31 32  2  0  0  0
 31 28  1  0  0  0
 28  1  1  0  0  0
  1  2  1  0  0  0
  3  2  1  0  0  0
  3  4  1  0  0  0
  4  5  2  0  0  0
  4  6  1  0  0  0
  6 18  1  0  0  0
 18 19  2  0  0  0
 19 20  1  0  0  0
 20 21  2  0  0  0
 21 22  1  0  0  0
 22 23  2  0  0  0
 23 24  1  0  0  0
 24 25  2  0  0  0
 25 26  1  0  0  0
 26 27  2  0  0  0
  6  7  1  0  0  0
  7  8  1  0  0  0
  8 34  1  0  0  0
 34 35  1  0  0  0
 35 37  1  0  0  0
 37 38  2  0  0  0
 38 39  1  0  0  0
 39 40  2  0  0  0
 40 41  1  0  0  0
 40 42  1  0  0  0
  3  9  1  0  0  0
  9 10  2  0  0  0
 10 11  1  0  0  0
 11 12  1  0  0  0
 11 13  2  0  0  0
 13 14  1  0  0  0
 14 15  2  0  0  0
 15 16  1  0  0  0
 16 17  2  0  0  0
 16  1  1  0  0  0
  8  3  1  0  0  0
 42 37  1  0  0  0
 15  9  1  0  0  0
 27 18  1  0  0  0
 27 22  1  0  0  0
 30 33  1  0  0  0
 35 36  1  0  0  0
M  END
> <minimizedAffinity>
-8.02913

> <CNNscore>
0.2809269726

> <CNNaffinity>
6.8250870705

> <CNN_VS>
1.9173510075

> <CNNaffinity_variance>
0.1241521463

$$$$



 42 47  0  0  0  0  0  0  0  0999 V2000
   -5.7752   -4.0597  -21.6187 N   0  0  0  0  0  0  0  0  0  0  0  0
   -6.0944   -3.5177  -22.9804 C   0  0  0  0  0  0  0  0  0  0  0  0
   -6.0296   -2.0407  -23.2339 C   0  0  0  0  0  0  0  0  0  0  0  0
   -6.0075   -0.5956  -23.6351 C   0  0  0  0  0  0  0  0  0  0  0  0
   -5.7800    0.4991  -23.1594 O   0  0  0  0  0  0  0  0  0  0  0  0
   -6.3912   -0.5104  -25.0827 N   0  0  0  0  0  0  0  0  0  0  0  0
   -6.6505   -1.9029  -25.5762 C   0  0  0  0  0  0  0  0  0  0  0  0
   -6.4269   -2.8487  -24.4336 C   0  0  0  0  0  0  0  0  0  0  0  0
   -5.6454   -1.1057  -22.1256 C   0  0  0  0  0  0  0  0  0  0  0  0
   -5.5805    0.3713  -22.3791 C   0  0  0  0  0  0  0  0  0  0  0  0
   -5.1964    1.3062  -21.2709 C   0  0  0  0  0  0  0  0  0  0  0  0
   -5.1315    2.7833  -21.5243 Cl  0  0  0  0  0  0  0  0  0  0  0  0
   -4.8771    0.7642  -19.9091 C   0  0  0  0  0  0  0  0  0  0  0  0
   -4.9420   -0.7127  -19.6556 C   0  0  0  0  0  0  0  0  0  0  0  0
   -5.3261   -1.6477  -20.7639 C   0  0  0  0  0  0  0  0  0  0  0  0
   -5.3910   -3.1248  -20.5104 C   0  0  0  0  0  0  0  0  0  0  0  0
   -5.0718   -3.6668  -19.1487 O   0  0  0  0  0  0  0  0  0  0  0  0
   -6.4971    0.7467  -25.8942 C   0  0  0  0  0  0  0  0  0  0  0  0
   -5.3989    1.1202  -26.8452 C   0  0  0  0  0  0  0  0  0  0  0  0
   -5.5048    2.3773  -27.6567 N   0  0  0  0  0  0  0  0  0  0  0  0
   -6.7089    3.2607  -27.5173 C   0  0  0  0  0  0  0  0  0  0  0  0
   -7.8072    2.8872  -26.5664 C   0  0  0  0  0  0  0  0  0  0  0  0
   -9.0114    3.7707  -26.4270 C   0  0  0  0  0  0  0  0  0  0  0  0
  -10.1096    3.3970  -25.4760 C   0  0  0  0  0  0  0  0  0  0  0  0
  -10.0037    2.1400  -24.6645 C   0  0  0  0  0  0  0  0  0  0  0  0
   -8.7996    1.2565  -24.8039 C   0  0  0  0  0  0  0  0  0  0  0  0
   -7.7013    1.6301  -25.7548 C   0  0  0  0  0  0  0  0  0  0  0  0
   -5.8401   -5.5368  -21.3652 C   0  0  0  0  0  0  0  0  0  0  0  0
   -3.6203   -7.4318  -24.0544 C   0  0  0  0  0  0  0  0  0  0  0  0
   -4.0312   -6.4679  -22.9810 N   0  0  0  0  0  0  0  0  0  0  0  0
   -5.4292   -6.5007  -22.4386 C   0  0  0  0  0  0  0  0  0  0  0  0
   -6.4166   -7.4973  -22.9696 O   0  0  0  0  0  0  0  0  0  0  0  0
   -3.3832   -5.8138  -22.6325 H   0  0  0  0  0  0  0  0  0  0  0  0
   -6.5748   -4.3406  -24.4821 C   0  0  0  0  0  0  0  0  0  0  0  0
   -7.9410   -4.9576  -24.5341 N   0  0  0  0  0  0  0  0  0  0  0  0
   -8.0378   -5.9365  -24.5759 H   0  0  0  0  0  0  0  0  0  0  0  0
   -9.1598   -4.0833  -24.5222 C   0  0  0  0  0  0  0  0  0  0  0  0
  -10.0086   -3.7378  -25.7097 C   0  0  0  0  0  0  0  0  0  0  0  0
  -11.1171   -2.8420  -25.2421 N   0  0  0  0  0  0  0  0  0  0  0  0
  -10.9535   -2.6339  -23.7656 C   0  0  0  0  0  0  0  0  0  0  0  0
  -11.8434   -1.8043  -22.8882 C   0  0  0  0  0  0  0  0  0  0  0  0
   -9.7438   -3.4012  -23.3207 S   0  0  0  0  0  0  0  0  0  0  0  0
 29 30  1  0  0  0
 30 31  1  0  0  0
 31 32  2  0  0  0
 31 28  1  0  0  0
 28  1  1  0  0  0
  1  2  1  0  0  0
  3  2  1  0  0  0
  3  4  1  0  0  0
  4  5  2  0  0  0
  4  6  1  0  0  0
  6 18  1  0  0  0
 18 19  2  0  0  0
 19 20  1  0  0  0
 20 21  2  0  0  0
 21 22  1  0  0  0
 22 23  2  0  0  0
 23 24  1  0  0  0
 24 25  2  0  0  0
 25 26  1  0  0  0
 26 27  2  0  0  0
  6  7  1  0  0  0
  7  8  1  0  0  0
  8 34  1  0  0  0
 34 35  1  0  0  0
 35 37  1  0  0  0
 37 38  2  0  0  0
 38 39  1  0  0  0
 39 40  2  0  0  0
 40 41  1  0  0  0
 40 42  1  0  0  0
  3  9  1  0  0  0
  9 10  2  0  0  0
 10 11  1  0  0  0
 11 12  1  0  0  0
 11 13  2  0  0  0
 13 14  1  0  0  0
 14 15  2  0  0  0
 15 16  1  0  0  0
 16 17  2  0  0  0
 16  1  1  0  0  0
  8  3  1  0  0  0
 42 37  1  0  0  0
 15  9  1  0  0  0
 27 18  1  0  0  0
 27 22  1  0  0  0
 30 33  1  0  0  0
 35 36  1  0  0  0
M  END
> <minimizedAffinity>
-7.50167

> <CNNscore>
0.2157985270

> <CNNaffinity>
6.5305366516

> <CNN_VS>
1.4092801809

> <CNNaffinity_variance>
0.1302349120

$$$$



 42 47  0  0  0  0  0  0  0  0999 V2000
  -10.0125    3.5192  -23.9319 N   0  0  0  0  0  0  0  0  0  0  0  0
   -8.8426    2.5833  -24.0063 C   0  0  0  0  0  0  0  0  0  0  0  0
   -9.0494    1.1085  -23.8273 C   0  0  0  0  0  0  0  0  0  0  0  0
   -9.1014   -0.3822  -23.6691 C   0  0  0  0  0  0  0  0  0  0  0  0
   -9.9062   -1.2689  -23.4631 O   0  0  0  0  0  0  0  0  0  0  0  0
   -7.7062   -0.9130  -23.8169 N   0  0  0  0  0  0  0  0  0  0  0  0
   -6.7920    0.2496  -24.0666 C   0  0  0  0  0  0  0  0  0  0  0  0
   -7.6221    1.4990  -24.0730 C   0  0  0  0  0  0  0  0  0  0  0  0
  -10.4261    0.5695  -23.5739 C   0  0  0  0  0  0  0  0  0  0  0  0
  -10.6329   -0.9054  -23.3949 C   0  0  0  0  0  0  0  0  0  0  0  0
  -12.0096   -1.4443  -23.1415 C   0  0  0  0  0  0  0  0  0  0  0  0
  -12.2165   -2.9192  -22.9625 Cl  0  0  0  0  0  0  0  0  0  0  0  0
  -13.1795   -0.5084  -23.0672 C   0  0  0  0  0  0  0  0  0  0  0  0
  -12.9727    0.9664  -23.2462 C   0  0  0  0  0  0  0  0  0  0  0  0
  -11.5960    1.5053  -23.4995 C   0  0  0  0  0  0  0  0  0  0  0  0
  -11.3891    2.9802  -23.6786 C   0  0  0  0  0  0  0  0  0  0  0  0
  -12.5590    3.9161  -23.6042 O   0  0  0  0  0  0  0  0  0  0  0  0
   -7.2972   -2.3536  -23.7304 C   0  0  0  0  0  0  0  0  0  0  0  0
   -6.6580   -2.8778  -22.4787 C   0  0  0  0  0  0  0  0  0  0  0  0
   -6.2489   -4.3184  -22.3922 N   0  0  0  0  0  0  0  0  0  0  0  0
   -6.4791   -5.2347  -23.5572 C   0  0  0  0  0  0  0  0  0  0  0  0
   -7.1184   -4.7104  -24.8088 C   0  0  0  0  0  0  0  0  0  0  0  0
   -7.3486   -5.6268  -25.9740 C   0  0  0  0  0  0  0  0  0  0  0  0
   -7.9878   -5.1024  -27.2255 C   0  0  0  0  0  0  0  0  0  0  0  0
   -8.3968   -3.6619  -27.3121 C   0  0  0  0  0  0  0  0  0  0  0  0
   -8.1666   -2.7456  -26.1470 C   0  0  0  0  0  0  0  0  0  0  0  0
   -7.5274   -3.2699  -24.8954 C   0  0  0  0  0  0  0  0  0  0  0  0
   -9.8056    4.9941  -24.1109 C   0  0  0  0  0  0  0  0  0  0  0  0
  -11.9621    6.7322  -26.9532 C   0  0  0  0  0  0  0  0  0  0  0  0
  -11.5924    6.0749  -25.6565 N   0  0  0  0  0  0  0  0  0  0  0  0
  -10.1752    5.6513  -25.4076 C   0  0  0  0  0  0  0  0  0  0  0  0
   -9.1276    5.8849  -26.4555 O   0  0  0  0  0  0  0  0  0  0  0  0
  -12.2800    5.9216  -24.9688 H   0  0  0  0  0  0  0  0  0  0  0  0
   -7.1141    2.8940  -24.2874 C   0  0  0  0  0  0  0  0  0  0  0  0
   -5.6414    3.1728  -24.2311 N   0  0  0  0  0  0  0  0  0  0  0  0
   -5.1772    3.5288  -25.0230 H   0  0  0  0  0  0  0  0  0  0  0  0
   -4.8758    2.9093  -22.9684 C   0  0  0  0  0  0  0  0  0  0  0  0
   -5.4214    2.2779  -21.7220 C   0  0  0  0  0  0  0  0  0  0  0  0
   -4.3130    2.2093  -20.7137 N   0  0  0  0  0  0  0  0  0  0  0  0
   -3.0823    2.7983  -21.3370 C   0  0  0  0  0  0  0  0  0  0  0  0
   -1.7395    2.9314  -20.6818 C   0  0  0  0  0  0  0  0  0  0  0  0
   -3.4301    3.2309  -22.7305 S   0  0  0  0  0  0  0  0  0  0  0  0
 29 30  1  0  0  0
 30 31  1  0  0  0
 31 32  2  0  0  0
 31 28  1  0  0  0
 28  1  1  0  0  0
  1  2  1  0  0  0
  3  2  1  0  0  0
  3  4  1  0  0  0
  4  5  2  0  0  0
  4  6  1  0  0  0
  6 18  1  0  0  0
 18 19  2  0  0  0
 19 20  1  0  0  0
 20 21  2  0  0  0
 21 22  1  0  0  0
 22 23  2  0  0  0
 23 24  1  0  0  0
 24 25  2  0  0  0
 25 26  1  0  0  0
 26 27  2  0  0  0
  6  7  1  0  0  0
  7  8  1  0  0  0
  8 34  1  0  0  0
 34 35  1  0  0  0
 35 37  1  0  0  0
 37 38  2  0  0  0
 38 39  1  0  0  0
 39 40  2  0  0  0
 40 41  1  0  0  0
 40 42  1  0  0  0
  3  9  1  0  0  0
  9 10  2  0  0  0
 10 11  1  0  0  0
 11 12  1  0  0  0
 11 13  2  0  0  0
 13 14  1  0  0  0
 14 15  2  0  0  0
 15 16  1  0  0  0
 16 17  2  0  0  0
 16  1  1  0  0  0
  8  3  1  0  0  0
 42 37  1  0  0  0
 15  9  1  0  0  0
 27 18  1  0  0  0
 27 22  1  0  0  0
 30 33  1  0  0  0
 35 36  1  0  0  0
M  END
> <minimizedAffinity>
-6.91514

> <CNNscore>
0.1975594759

> <CNNaffinity>
6.4652915001

> <CNN_VS>
1.2772796154

> <CNNaffinity_variance>
0.2761825621

$$$$



 42 47  0  0  0  0  0  0  0  0999 V2000
   -3.2072    1.2688  -23.5960 N   0  0  0  0  0  0  0  0  0  0  0  0
   -4.5369    1.3375  -22.9051 C   0  0  0  0  0  0  0  0  0  0  0  0
   -5.6995    0.5526  -23.4363 C   0  0  0  0  0  0  0  0  0  0  0  0
   -6.9460   -0.1724  -23.8491 C   0  0  0  0  0  0  0  0  0  0  0  0
   -7.3354   -0.9408  -24.7060 O   0  0  0  0  0  0  0  0  0  0  0  0
   -8.0331    0.1853  -22.8793 N   0  0  0  0  0  0  0  0  0  0  0  0
   -7.4583    1.1314  -21.8671 C   0  0  0  0  0  0  0  0  0  0  0  0
   -6.0161    1.3584  -22.2113 C   0  0  0  0  0  0  0  0  0  0  0  0
   -5.5324   -0.3011  -24.6583 C   0  0  0  0  0  0  0  0  0  0  0  0
   -6.6950   -1.0861  -25.1895 C   0  0  0  0  0  0  0  0  0  0  0  0
   -6.5279   -1.9398  -26.4115 C   0  0  0  0  0  0  0  0  0  0  0  0
   -7.6906   -2.7248  -26.9427 Cl  0  0  0  0  0  0  0  0  0  0  0  0
   -5.1983   -2.0085  -27.1023 C   0  0  0  0  0  0  0  0  0  0  0  0
   -4.0357   -1.2235  -26.5711 C   0  0  0  0  0  0  0  0  0  0  0  0
   -4.2028   -0.3699  -25.3492 C   0  0  0  0  0  0  0  0  0  0  0  0
   -3.0401    0.4152  -24.8179 C   0  0  0  0  0  0  0  0  0  0  0  0
   -1.7105    0.3465  -25.5088 O   0  0  0  0  0  0  0  0  0  0  0  0
   -9.4466   -0.3153  -22.9154 C   0  0  0  0  0  0  0  0  0  0  0  0
   -9.7409   -1.7539  -22.6094 C   0  0  0  0  0  0  0  0  0  0  0  0
  -11.1544   -2.2545  -22.6455 N   0  0  0  0  0  0  0  0  0  0  0  0
  -12.2737   -1.3163  -22.9876 C   0  0  0  0  0  0  0  0  0  0  0  0
  -11.9794    0.1224  -23.2935 C   0  0  0  0  0  0  0  0  0  0  0  0
  -13.0988    1.0606  -23.6356 C   0  0  0  0  0  0  0  0  0  0  0  0
  -12.8044    2.4992  -23.9415 C   0  0  0  0  0  0  0  0  0  0  0  0
  -11.3909    2.9998  -23.9054 C   0  0  0  0  0  0  0  0  0  0  0  0
  -10.2716    2.0616  -23.5634 C   0  0  0  0  0  0  0  0  0  0  0  0
  -10.5659    0.6229  -23.2574 C   0  0  0  0  0  0  0  0  0  0  0  0
   -2.0446    2.0539  -23.0647 C   0  0  0  0  0  0  0  0  0  0  0  0
    1.3769    0.2680  -22.1405 C   0  0  0  0  0  0  0  0  0  0  0  0
    0.3069    0.9569  -22.9347 N   0  0  0  0  0  0  0  0  0  0  0  0
   -0.9746    1.3649  -22.2706 C   0  0  0  0  0  0  0  0  0  0  0  0
   -1.1863    1.0841  -20.8124 O   0  0  0  0  0  0  0  0  0  0  0  0
    0.4459    1.1412  -23.8917 H   0  0  0  0  0  0  0  0  0  0  0  0
   -5.0585    2.2369  -21.4621 C   0  0  0  0  0  0  0  0  0  0  0  0
   -4.5713    1.8281  -20.1038 N   0  0  0  0  0  0  0  0  0  0  0  0
   -3.9959    2.4347  -19.5840 H   0  0  0  0  0  0  0  0  0  0  0  0
   -4.9606    0.4949  -19.5371 C   0  0  0  0  0  0  0  0  0  0  0  0
   -5.4992    0.2457  -18.1595 C   0  0  0  0  0  0  0  0  0  0  0  0
   -5.7512   -1.2263  -18.0196 N   0  0  0  0  0  0  0  0  0  0  0  0
   -5.3684   -1.8869  -19.3108 C   0  0  0  0  0  0  0  0  0  0  0  0
   -5.4584   -3.3537  -19.6113 C   0  0  0  0  0  0  0  0  0  0  0  0
   -4.8798   -0.8231  -20.2487 S   0  0  0  0  0  0  0  0  0  0  0  0
 29 30  1  0  0  0
 30 31  1  0  0  0
 31 32  2  0  0  0
 31 28  1  0  0  0
 28  1  1  0  0  0
  1  2  1  0  0  0
  3  2  1  0  0  0
  3  4  1  0  0  0
  4  5  2  0  0  0
  4  6  1  0  0  0
  6 18  1  0  0  0
 18 19  2  0  0  0
 19 20  1  0  0  0
 20 21  2  0  0  0
 21 22  1  0  0  0
 22 23  2  0  0  0
 23 24  1  0  0  0
 24 25  2  0  0  0
 25 26  1  0  0  0
 26 27  2  0  0  0
  6  7  1  0  0  0
  7  8  1  0  0  0
  8 34  1  0  0  0
 34 35  1  0  0  0
 35 37  1  0  0  0
 37 38  2  0  0  0
 38 39  1  0  0  0
 39 40  2  0  0  0
 40 41  1  0  0  0
 40 42  1  0  0  0
  3  9  1  0  0  0
  9 10  2  0  0  0
 10 11  1  0  0  0
 11 12  1  0  0  0
 11 13  2  0  0  0
 13 14  1  0  0  0
 14 15  2  0  0  0
 15 16  1  0  0  0
 16 17  2  0  0  0
 16  1  1  0  0  0
  8  3  1  0  0  0
 42 37  1  0  0  0
 15  9  1  0  0  0
 27 18  1  0  0  0
 27 22  1  0  0  0
 30 33  1  0  0  0
 35 36  1  0  0  0
M  END
> <minimizedAffinity>
-7.60214

> <CNNscore>
0.1889281422

> <CNNaffinity>
6.2996182442

> <CNN_VS>
1.1901751757

> <CNNaffinity_variance>
0.4753468931

$$$$



 42 47  0  0  0  0  0  0  0  0999 V2000
   -3.7288    2.4566  -23.5098 N   0  0  0  0  0  0  0  0  0  0  0  0
   -4.9151    1.5387  -23.4979 C   0  0  0  0  0  0  0  0  0  0  0  0
   -6.3030    2.1063  -23.5340 C   0  0  0  0  0  0  0  0  0  0  0  0
   -7.7428    2.5257  -23.5662 C   0  0  0  0  0  0  0  0  0  0  0  0
   -8.4175    3.5355  -23.6061 O   0  0  0  0  0  0  0  0  0  0  0  0
   -8.5874    1.2864  -23.5399 N   0  0  0  0  0  0  0  0  0  0  0  0
   -7.6696    0.1010  -23.4914 C   0  0  0  0  0  0  0  0  0  0  0  0
   -6.2578    0.6077  -23.4877 C   0  0  0  0  0  0  0  0  0  0  0  0
   -6.5048    3.5919  -23.5820 C   0  0  0  0  0  0  0  0  0  0  0  0
   -7.8927    4.1596  -23.6180 C   0  0  0  0  0  0  0  0  0  0  0  0
   -8.0944    5.6451  -23.6660 C   0  0  0  0  0  0  0  0  0  0  0  0
   -9.4824    6.2128  -23.7021 Cl  0  0  0  0  0  0  0  0  0  0  0  0
   -6.9082    6.5631  -23.6779 C   0  0  0  0  0  0  0  0  0  0  0  0
   -5.5202    5.9955  -23.6419 C   0  0  0  0  0  0  0  0  0  0  0  0
   -5.3185    4.5099  -23.5939 C   0  0  0  0  0  0  0  0  0  0  0  0
   -3.9305    3.9422  -23.5578 C   0  0  0  0  0  0  0  0  0  0  0  0
   -2.7442    4.8602  -23.5697 O   0  0  0  0  0  0  0  0  0  0  0  0
  -10.0866    1.2406  -23.5588 C   0  0  0  0  0  0  0  0  0  0  0  0
  -10.8708    2.4777  -23.8824 C   0  0  0  0  0  0  0  0  0  0  0  0
  -12.3699    2.4318  -23.9013 N   0  0  0  0  0  0  0  0  0  0  0  0
  -13.0849    1.1489  -23.5966 C   0  0  0  0  0  0  0  0  0  0  0  0
  -12.3008   -0.0882  -23.2729 C   0  0  0  0  0  0  0  0  0  0  0  0
  -13.0158   -1.3711  -22.9682 C   0  0  0  0  0  0  0  0  0  0  0  0
  -12.2316   -2.6082  -22.6446 C   0  0  0  0  0  0  0  0  0  0  0  0
  -10.7324   -2.5623  -22.6257 C   0  0  0  0  0  0  0  0  0  0  0  0
  -10.0174   -1.2794  -22.9304 C   0  0  0  0  0  0  0  0  0  0  0  0
  -10.8016   -0.0423  -23.2541 C   0  0  0  0  0  0  0  0  0  0  0  0
   -2.3408    1.8889  -23.4737 C   0  0  0  0  0  0  0  0  0  0  0  0
    0.1974    3.3679  -20.8053 C   0  0  0  0  0  0  0  0  0  0  0  0
   -0.6366    3.2319  -22.0447 N   0  0  0  0  0  0  0  0  0  0  0  0
   -1.5069    2.0250  -22.2343 C   0  0  0  0  0  0  0  0  0  0  0  0
   -1.5433    0.9541  -21.1846 O   0  0  0  0  0  0  0  0  0  0  0  0
   -0.6127    3.9347  -22.7337 H   0  0  0  0  0  0  0  0  0  0  0  0
   -5.0183   -0.2361  -23.4452 C   0  0  0  0  0  0  0  0  0  0  0  0
   -4.9948   -1.4937  -22.6282 N   0  0  0  0  0  0  0  0  0  0  0  0
   -4.8390   -2.3619  -23.0654 H   0  0  0  0  0  0  0  0  0  0  0  0
   -5.2087   -1.4287  -21.1449 C   0  0  0  0  0  0  0  0  0  0  0  0
   -5.6121   -2.5717  -20.2613 C   0  0  0  0  0  0  0  0  0  0  0  0
   -5.7094   -2.0586  -18.8552 N   0  0  0  0  0  0  0  0  0  0  0  0
   -5.3660   -0.5985  -18.8697 C   0  0  0  0  0  0  0  0  0  0  0  0
   -5.3372    0.3123  -17.6783 C   0  0  0  0  0  0  0  0  0  0  0  0
   -5.0566   -0.2092  -20.2849 S   0  0  0  0  0  0  0  0  0  0  0  0
 29 30  1  0  0  0
 30 31  1  0  0  0
 31 32  2  0  0  0
 31 28  1  0  0  0
 28  1  1  0  0  0
  1  2  1  0  0  0
  3  2  1  0  0  0
  3  4  1  0  0  0
  4  5  2  0  0  0
  4  6  1  0  0  0
  6 18  1  0  0  0
 18 19  2  0  0  0
 19 20  1  0  0  0
 20 21  2  0  0  0
 21 22  1  0  0  0
 22 23  2  0  0  0
 23 24  1  0  0  0
 24 25  2  0  0  0
 25 26  1  0  0  0
 26 27  2  0  0  0
  6  7  1  0  0  0
  7  8  1  0  0  0
  8 34  1  0  0  0
 34 35  1  0  0  0
 35 37  1  0  0  0
 37 38  2  0  0  0
 38 39  1  0  0  0
 39 40  2  0  0  0
 40 41  1  0  0  0
 40 42  1  0  0  0
  3  9  1  0  0  0
  9 10  2  0  0  0
 10 11  1  0  0  0
 11 12  1  0  0  0
 11 13  2  0  0  0
 13 14  1  0  0  0
 14 15  2  0  0  0
 15 16  1  0  0  0
 16 17  2  0  0  0
 16  1  1  0  0  0
  8  3  1  0  0  0
 42 37  1  0  0  0
 15  9  1  0  0  0
 27 18  1  0  0  0
 27 22  1  0  0  0
 30 33  1  0  0  0
 35 36  1  0  0  0
M  END
> <minimizedAffinity>
-7.95819

> <CNNscore>
0.1682706475

> <CNNaffinity>
6.3062887192

> <CNN_VS>
1.0611633062

> <CNNaffinity_variance>
0.5009478331

$$$$



 42 47  0  0  0  0  0  0  0  0999 V2000
   -6.4966   -0.3902  -22.4235 N   0  0  0  0  0  0  0  0  0  0  0  0
   -6.7646    0.8967  -23.1460 C   0  0  0  0  0  0  0  0  0  0  0  0
   -8.1446    1.2012  -23.6487 C   0  0  0  0  0  0  0  0  0  0  0  0
   -9.4662    1.6410  -24.2056 C   0  0  0  0  0  0  0  0  0  0  0  0
  -10.6137    1.2521  -24.2968 O   0  0  0  0  0  0  0  0  0  0  0  0
   -9.2765    2.9859  -24.8423 N   0  0  0  0  0  0  0  0  0  0  0  0
   -7.8377    3.3772  -24.6790 C   0  0  0  0  0  0  0  0  0  0  0  0
   -7.1382    2.2742  -23.9413 C   0  0  0  0  0  0  0  0  0  0  0  0
   -9.2568    0.2188  -23.4289 C   0  0  0  0  0  0  0  0  0  0  0  0
  -10.6368    0.5234  -23.9316 C   0  0  0  0  0  0  0  0  0  0  0  0
  -11.7488   -0.4590  -23.7118 C   0  0  0  0  0  0  0  0  0  0  0  0
  -13.1289   -0.1545  -24.2145 Cl  0  0  0  0  0  0  0  0  0  0  0  0
  -11.4808   -1.7459  -22.9892 C   0  0  0  0  0  0  0  0  0  0  0  0
  -10.1008   -2.0504  -22.4865 C   0  0  0  0  0  0  0  0  0  0  0  0
   -8.9888   -1.0680  -22.7063 C   0  0  0  0  0  0  0  0  0  0  0  0
   -7.6086   -1.3726  -22.2036 C   0  0  0  0  0  0  0  0  0  0  0  0
   -7.3406   -2.6594  -21.4810 O   0  0  0  0  0  0  0  0  0  0  0  0
  -10.3390    3.7969  -25.5229 C   0  0  0  0  0  0  0  0  0  0  0  0
  -10.2757    4.0240  -27.0043 C   0  0  0  0  0  0  0  0  0  0  0  0
  -11.3382    4.8351  -27.6848 N   0  0  0  0  0  0  0  0  0  0  0  0
  -12.4641    5.4191  -26.8840 C   0  0  0  0  0  0  0  0  0  0  0  0
  -12.5274    5.1920  -25.4026 C   0  0  0  0  0  0  0  0  0  0  0  0
  -13.6534    5.7760  -24.6018 C   0  0  0  0  0  0  0  0  0  0  0  0
  -13.7166    5.5489  -23.1204 C   0  0  0  0  0  0  0  0  0  0  0  0
  -12.6541    4.7379  -22.4399 C   0  0  0  0  0  0  0  0  0  0  0  0
  -11.5282    4.1539  -23.2407 C   0  0  0  0  0  0  0  0  0  0  0  0
  -11.4649    4.3809  -24.7221 C   0  0  0  0  0  0  0  0  0  0  0  0
   -5.1165   -0.6947  -21.9207 C   0  0  0  0  0  0  0  0  0  0  0  0
   -5.0893    0.0914  -18.0309 C   0  0  0  0  0  0  0  0  0  0  0  0
   -5.5294   -0.4203  -19.3704 N   0  0  0  0  0  0  0  0  0  0  0  0
   -4.6764   -0.1830  -20.5812 C   0  0  0  0  0  0  0  0  0  0  0  0
   -3.3832    0.5662  -20.4524 O   0  0  0  0  0  0  0  0  0  0  0  0
   -6.3782   -0.9120  -19.4549 H   0  0  0  0  0  0  0  0  0  0  0  0
   -5.6870    2.2488  -23.5627 C   0  0  0  0  0  0  0  0  0  0  0  0
   -4.6347    2.4603  -24.6105 N   0  0  0  0  0  0  0  0  0  0  0  0
   -4.7574    3.1538  -25.2984 H   0  0  0  0  0  0  0  0  0  0  0  0
   -3.3953    1.6154  -24.6101 C   0  0  0  0  0  0  0  0  0  0  0  0
   -3.1982    0.3390  -25.3729 C   0  0  0  0  0  0  0  0  0  0  0  0
   -1.8165   -0.1668  -25.0811 N   0  0  0  0  0  0  0  0  0  0  0  0
   -1.1597    0.7971  -24.1379 C   0  0  0  0  0  0  0  0  0  0  0  0
    0.2291    0.6800  -23.5832 C   0  0  0  0  0  0  0  0  0  0  0  0
   -2.1354    1.8985  -23.8468 S   0  0  0  0  0  0  0  0  0  0  0  0
 29 30  1  0  0  0
 30 31  1  0  0  0
 31 32  2  0  0  0
 31 28  1  0  0  0
 28  1  1  0  0  0
  1  2  1  0  0  0
  3  2  1  0  0  0
  3  4  1  0  0  0
  4  5  2  0  0  0
  4  6  1  0  0  0
  6 18  1  0  0  0
 18 19  2  0  0  0
 19 20  1  0  0  0
 20 21  2  0  0  0
 21 22  1  0  0  0
 22 23  2  0  0  0
 23 24  1  0  0  0
 24 25  2  0  0  0
 25 26  1  0  0  0
 26 27  2  0  0  0
  6  7  1  0  0  0
  7  8  1  0  0  0
  8 34  1  0  0  0
 34 35  1  0  0  0
 35 37  1  0  0  0
 37 38  2  0  0  0
 38 39  1  0  0  0
 39 40  2  0  0  0
 40 41  1  0  0  0
 40 42  1  0  0  0
  3  9  1  0  0  0
  9 10  2  0  0  0
 10 11  1  0  0  0
 11 12  1  0  0  0
 11 13  2  0  0  0
 13 14  1  0  0  0
 14 15  2  0  0  0
 15 16  1  0  0  0
 16 17  2  0  0  0
 16  1  1  0  0  0
  8  3  1  0  0  0
 42 37  1  0  0  0
 15  9  1  0  0  0
 27 18  1  0  0  0
 27 22  1  0  0  0
 30 33  1  0  0  0
 35 36  1  0  0  0
M  END
> <minimizedAffinity>
-7.71771

> <CNNscore>
0.1660789400

> <CNNaffinity>
6.3605880737

> <CNN_VS>
1.0563597679

> <CNNaffinity_variance>
0.1425153166

$$$$
