


 42 47  0  0  0  0  0  0  0  0999 V2000
    5.4254    1.6275   21.7789 N   0  0  0  0  0  0  0  0  0  0  0  0
    6.2121    0.3914   22.0998 C   0  0  0  0  0  0  0  0  0  0  0  0
    7.6350    0.5064   22.5604 C   0  0  0  0  0  0  0  0  0  0  0  0
    9.0591    0.4646   23.0295 C   0  0  0  0  0  0  0  0  0  0  0  0
    9.9753    1.2185   23.2915 O   0  0  0  0  0  0  0  0  0  0  0  0
    9.4400   -0.9726   23.2276 N   0  0  0  0  0  0  0  0  0  0  0  0
    8.2512   -1.8192   22.8809 C   0  0  0  0  0  0  0  0  0  0  0  0
    7.1357   -0.9051   22.4686 C   0  0  0  0  0  0  0  0  0  0  0  0
    8.2712    1.8576   22.7002 C   0  0  0  0  0  0  0  0  0  0  0  0
    9.6940    1.9727   23.1608 C   0  0  0  0  0  0  0  0  0  0  0  0
   10.3301    3.3239   23.3005 C   0  0  0  0  0  0  0  0  0  0  0  0
   11.7531    3.4389   23.7612 Cl  0  0  0  0  0  0  0  0  0  0  0  0
    9.5434    4.5600   22.9796 C   0  0  0  0  0  0  0  0  0  0  0  0
    8.1206    4.4450   22.5190 C   0  0  0  0  0  0  0  0  0  0  0  0
    7.4845    3.0938   22.3793 C   0  0  0  0  0  0  0  0  0  0  0  0
    6.0615    2.9787   21.9186 C   0  0  0  0  0  0  0  0  0  0  0  0
    5.2748    4.2149   21.5977 O   0  0  0  0  0  0  0  0  0  0  0  0
   10.7752   -1.4751   23.6909 C   0  0  0  0  0  0  0  0  0  0  0  0
   12.0169   -1.1166   22.9295 C   0  0  0  0  0  0  0  0  0  0  0  0
   13.3521   -1.6191   23.3929 N   0  0  0  0  0  0  0  0  0  0  0  0
   13.4457   -2.4800   24.6177 C   0  0  0  0  0  0  0  0  0  0  0  0
   12.2039   -2.8384   25.3791 C   0  0  0  0  0  0  0  0  0  0  0  0
   12.2975   -3.6994   26.6039 C   0  0  0  0  0  0  0  0  0  0  0  0
   11.0557   -4.0578   27.3652 C   0  0  0  0  0  0  0  0  0  0  0  0
    9.7205   -3.5554   26.9018 C   0  0  0  0  0  0  0  0  0  0  0  0
    9.6270   -2.6944   25.6771 C   0  0  0  0  0  0  0  0  0  0  0  0
   10.8687   -2.3360   24.9157 C   0  0  0  0  0  0  0  0  0  0  0  0
    4.0025    1.5124   21.3182 C   0  0  0  0  0  0  0  0  0  0  0  0
    4.4338    1.1576   17.3891 C   0  0  0  0  0  0  0  0  0  0  0  0
    4.7498    1.1571   18.8554 N   0  0  0  0  0  0  0  0  0  0  0  0
    3.6865    1.5129   19.8518 C   0  0  0  0  0  0  0  0  0  0  0  0
    2.3073    1.8692   19.3819 O   0  0  0  0  0  0  0  0  0  0  0  0
    5.6550    0.9232   19.1639 H   0  0  0  0  0  0  0  0  0  0  0  0
    5.7620   -1.3282   22.0398 C   0  0  0  0  0  0  0  0  0  0  0  0
    5.4845   -2.7685   21.7261 N   0  0  0  0  0  0  0  0  0  0  0  0
    5.1316   -3.0207   20.8423 H   0  0  0  0  0  0  0  0  0  0  0  0
    5.7448   -3.8247   22.7589 C   0  0  0  0  0  0  0  0  0  0  0  0
    5.5863   -3.6657   24.2420 C   0  0  0  0  0  0  0  0  0  0  0  0
    5.9528   -4.9681   24.8896 N   0  0  0  0  0  0  0  0  0  0  0  0
    6.3378   -5.9321   23.8067 C   0  0  0  0  0  0  0  0  0  0  0  0
    6.7747   -7.3532   24.0058 C   0  0  0  0  0  0  0  0  0  0  0  0
    6.2093   -5.2254   22.4899 S   0  0  0  0  0  0  0  0  0  0  0  0
 29 30  1  0  0  0
 30 31  1  0  0  0
 31 32  2  0  0  0
 31 28  1  0  0  0
 28  1  1  0  0  0
  1  2  1  0  0  0
  3  2  1  0  0  0
  3  4  1  0  0  0
  4  5  2  0  0  0
  4  6  1  0  0  0
  6 18  1  0  0  0
 18 19  2  0  0  0
 19 20  1  0  0  0
 20 21  2  0  0  0
 21 22  1  0  0  0
 22 23  2  0  0  0
 23 24  1  0  0  0
 24 25  2  0  0  0
 25 26  1  0  0  0
 26 27  2  0  0  0
  6  7  1  0  0  0
  7  8  1  0  0  0
  8 34  1  0  0  0
 34 35  1  0  0  0
 35 37  1  0  0  0
 37 38  2  0  0  0
 38 39  1  0  0  0
 39 40  2  0  0  0
 40 41  1  0  0  0
 40 42  1  0  0  0
  3  9  1  0  0  0
  9 10  2  0  0  0
 10 11  1  0  0  0
 11 12  1  0  0  0
 11 13  2  0  0  0
 13 14  1  0  0  0
 14 15  2  0  0  0
 15 16  1  0  0  0
 16 17  2  0  0  0
 16  1  1  0  0  0
  8  3  1  0  0  0
 42 37  1  0  0  0
 15  9  1  0  0  0
 27 18  1  0  0  0
 27 22  1  0  0  0
 30 33  1  0  0  0
 35 36  1  0  0  0
M  END
> <minimizedAffinity>
-7.83647

> <CNNscore>
0.3020673692

> <CNNaffinity>
7.0590691566

> <CNN_VS>
2.1323144436

> <CNNaffinity_variance>
0.0387298837

$$$$



 42 47  0  0  0  0  0  0  0  0999 V2000
    9.6542    0.6077   22.7265 N   0  0  0  0  0  0  0  0  0  0  0  0
    8.5204   -0.3673   22.6082 C   0  0  0  0  0  0  0  0  0  0  0  0
    8.5369   -1.6372   23.4062 C   0  0  0  0  0  0  0  0  0  0  0  0
    8.4155   -2.9413   24.1375 C   0  0  0  0  0  0  0  0  0  0  0  0
    9.0239   -3.6163   24.9440 O   0  0  0  0  0  0  0  0  0  0  0  0
    7.1291   -3.5893   23.7190 N   0  0  0  0  0  0  0  0  0  0  0  0
    6.4554   -2.6858   22.7292 C   0  0  0  0  0  0  0  0  0  0  0  0
    7.3255   -1.4794   22.5359 C   0  0  0  0  0  0  0  0  0  0  0  0
    9.6872   -1.9322   24.3227 C   0  0  0  0  0  0  0  0  0  0  0  0
    9.7038   -3.2022   25.1208 C   0  0  0  0  0  0  0  0  0  0  0  0
   10.8540   -3.4971   26.0372 C   0  0  0  0  0  0  0  0  0  0  0  0
   10.8706   -4.7671   26.8353 Cl  0  0  0  0  0  0  0  0  0  0  0  0
   11.9878   -2.5221   26.1555 C   0  0  0  0  0  0  0  0  0  0  0  0
   11.9713   -1.2522   25.3575 C   0  0  0  0  0  0  0  0  0  0  0  0
   10.8210   -0.9572   24.4411 C   0  0  0  0  0  0  0  0  0  0  0  0
   10.8044    0.3128   23.6430 C   0  0  0  0  0  0  0  0  0  0  0  0
   11.9382    1.2878   23.7613 O   0  0  0  0  0  0  0  0  0  0  0  0
    6.6079   -4.9092   24.2051 C   0  0  0  0  0  0  0  0  0  0  0  0
    7.1518   -6.1860   23.6360 C   0  0  0  0  0  0  0  0  0  0  0  0
    6.6306   -7.5059   24.1221 N   0  0  0  0  0  0  0  0  0  0  0  0
    5.5654   -7.5489   25.1773 C   0  0  0  0  0  0  0  0  0  0  0  0
    5.0215   -6.2721   25.7465 C   0  0  0  0  0  0  0  0  0  0  0  0
    3.9562   -6.3152   26.8018 C   0  0  0  0  0  0  0  0  0  0  0  0
    3.4124   -5.0383   27.3708 C   0  0  0  0  0  0  0  0  0  0  0  0
    3.9336   -3.7184   26.8847 C   0  0  0  0  0  0  0  0  0  0  0  0
    4.9988   -3.6754   25.8295 C   0  0  0  0  0  0  0  0  0  0  0  0
    5.5427   -4.9522   25.2604 C   0  0  0  0  0  0  0  0  0  0  0  0
    9.6376    1.8777   21.9284 C   0  0  0  0  0  0  0  0  0  0  0  0
    8.3894    5.3407   23.4115 C   0  0  0  0  0  0  0  0  0  0  0  0
    9.2958    4.2148   23.0106 N   0  0  0  0  0  0  0  0  0  0  0  0
    8.7312    3.0036   22.3293 C   0  0  0  0  0  0  0  0  0  0  0  0
    7.2601    2.9184   22.0488 O   0  0  0  0  0  0  0  0  0  0  0  0
   10.2613    4.2707   23.1947 H   0  0  0  0  0  0  0  0  0  0  0  0
    7.0352   -0.3188   21.6310 C   0  0  0  0  0  0  0  0  0  0  0  0
    6.7434   -0.5547   20.1788 N   0  0  0  0  0  0  0  0  0  0  0  0
    7.2258   -1.2585   19.6877 H   0  0  0  0  0  0  0  0  0  0  0  0
    5.7165    0.2817   19.4745 C   0  0  0  0  0  0  0  0  0  0  0  0
    5.6098    0.4838   17.9921 C   0  0  0  0  0  0  0  0  0  0  0  0
    4.4434    1.3899   17.7305 N   0  0  0  0  0  0  0  0  0  0  0  0
    3.8291    1.7478   19.0514 C   0  0  0  0  0  0  0  0  0  0  0  0
    2.6373    2.6348   19.2580 C   0  0  0  0  0  0  0  0  0  0  0  0
    4.6159    1.0629   20.1292 S   0  0  0  0  0  0  0  0  0  0  0  0
 29 30  1  0  0  0
 30 31  1  0  0  0
 31 32  2  0  0  0
 31 28  1  0  0  0
 28  1  1  0  0  0
  1  2  1  0  0  0
  3  2  1  0  0  0
  3  4  1  0  0  0
  4  5  2  0  0  0
  4  6  1  0  0  0
  6 18  1  0  0  0
 18 19  2  0  0  0
 19 20  1  0  0  0
 20 21  2  0  0  0
 21 22  1  0  0  0
 22 23  2  0  0  0
 23 24  1  0  0  0
 24 25  2  0  0  0
 25 26  1  0  0  0
 26 27  2  0  0  0
  6  7  1  0  0  0
  7  8  1  0  0  0
  8 34  1  0  0  0
 34 35  1  0  0  0
 35 37  1  0  0  0
 37 38  2  0  0  0
 38 39  1  0  0  0
 39 40  2  0  0  0
 40 41  1  0  0  0
 40 42  1  0  0  0
  3  9  1  0  0  0
  9 10  2  0  0  0
 10 11  1  0  0  0
 11 12  1  0  0  0
 11 13  2  0  0  0
 13 14  1  0  0  0
 14 15  2  0  0  0
 15 16  1  0  0  0
 16 17  2  0  0  0
 16  1  1  0  0  0
  8  3  1  0  0  0
 42 37  1  0  0  0
 15  9  1  0  0  0
 27 18  1  0  0  0
 27 22  1  0  0  0
 30 33  1  0  0  0
 35 36  1  0  0  0
M  END
> <minimizedAffinity>
-9.40081

> <CNNscore>
0.2384339571

> <CNNaffinity>
6.9758653641

> <CNN_VS>
1.6632832289

> <CNNaffinity_variance>
0.1727468967

$$$$



 42 47  0  0  0  0  0  0  0  0999 V2000
    6.8421   -3.6941   23.1677 N   0  0  0  0  0  0  0  0  0  0  0  0
    7.0614   -2.3045   22.6470 C   0  0  0  0  0  0  0  0  0  0  0  0
    8.2648   -1.5218   23.0819 C   0  0  0  0  0  0  0  0  0  0  0  0
    9.4154   -0.6229   23.4254 C   0  0  0  0  0  0  0  0  0  0  0  0
   10.4236   -0.6193   24.1036 O   0  0  0  0  0  0  0  0  0  0  0  0
    9.2337    0.6673   22.6821 N   0  0  0  0  0  0  0  0  0  0  0  0
    7.9707    0.5657   21.8793 C   0  0  0  0  0  0  0  0  0  0  0  0
    7.3719   -0.7872   22.1264 C   0  0  0  0  0  0  0  0  0  0  0  0
    9.2490   -2.1286   24.0376 C   0  0  0  0  0  0  0  0  0  0  0  0
   10.4523   -1.3459   24.4725 C   0  0  0  0  0  0  0  0  0  0  0  0
   11.4364   -1.9527   25.4282 C   0  0  0  0  0  0  0  0  0  0  0  0
   12.6399   -1.1700   25.8632 Cl  0  0  0  0  0  0  0  0  0  0  0  0
   11.2172   -3.3423   25.9489 C   0  0  0  0  0  0  0  0  0  0  0  0
   10.0138   -4.1250   25.5139 C   0  0  0  0  0  0  0  0  0  0  0  0
    9.0297   -3.5182   24.5583 C   0  0  0  0  0  0  0  0  0  0  0  0
    7.8262   -4.3009   24.1233 C   0  0  0  0  0  0  0  0  0  0  0  0
    7.6070   -5.6904   24.6440 O   0  0  0  0  0  0  0  0  0  0  0  0
   10.1534    1.8511   22.7328 C   0  0  0  0  0  0  0  0  0  0  0  0
   11.6318    1.6600   22.5660 C   0  0  0  0  0  0  0  0  0  0  0  0
   12.5516    2.8438   22.6167 N   0  0  0  0  0  0  0  0  0  0  0  0
   11.9929    4.2188   22.8342 C   0  0  0  0  0  0  0  0  0  0  0  0
   10.5145    4.4099   23.0009 C   0  0  0  0  0  0  0  0  0  0  0  0
    9.9558    5.7850   23.2184 C   0  0  0  0  0  0  0  0  0  0  0  0
    8.4774    5.9761   23.3851 C   0  0  0  0  0  0  0  0  0  0  0  0
    7.5577    4.7922   23.3344 C   0  0  0  0  0  0  0  0  0  0  0  0
    8.1163    3.4173   23.1170 C   0  0  0  0  0  0  0  0  0  0  0  0
    9.5947    3.2261   22.9502 C   0  0  0  0  0  0  0  0  0  0  0  0
    5.6387   -4.4768   22.7327 C   0  0  0  0  0  0  0  0  0  0  0  0
    3.5499   -7.3645   24.4785 C   0  0  0  0  0  0  0  0  0  0  0  0
    4.3681   -6.6216   23.4643 N   0  0  0  0  0  0  0  0  0  0  0  0
    4.8205   -5.2197   23.7469 C   0  0  0  0  0  0  0  0  0  0  0  0
    4.4547   -4.5607   25.0438 O   0  0  0  0  0  0  0  0  0  0  0  0
    4.6082   -7.0542   22.6131 H   0  0  0  0  0  0  0  0  0  0  0  0
    6.1030   -1.3132   21.5237 C   0  0  0  0  0  0  0  0  0  0  0  0
    5.8953   -1.2506   20.0395 N   0  0  0  0  0  0  0  0  0  0  0  0
    6.2357   -1.9732   19.4640 H   0  0  0  0  0  0  0  0  0  0  0  0
    5.1691   -0.0872   19.4321 C   0  0  0  0  0  0  0  0  0  0  0  0
    5.2554    0.3567   18.0019 C   0  0  0  0  0  0  0  0  0  0  0  0
    4.3687    1.5549   17.8342 N   0  0  0  0  0  0  0  0  0  0  0  0
    3.7343    1.8515   19.1607 C   0  0  0  0  0  0  0  0  0  0  0  0
    2.7739    2.9670   19.4490 C   0  0  0  0  0  0  0  0  0  0  0  0
    4.2290    0.8366   20.1483 S   0  0  0  0  0  0  0  0  0  0  0  0
 29 30  1  0  0  0
 30 31  1  0  0  0
 31 32  2  0  0  0
 31 28  1  0  0  0
 28  1  1  0  0  0
  1  2  1  0  0  0
  3  2  1  0  0  0
  3  4  1  0  0  0
  4  5  2  0  0  0
  4  6  1  0  0  0
  6 18  1  0  0  0
 18 19  2  0  0  0
 19 20  1  0  0  0
 20 21  2  0  0  0
 21 22  1  0  0  0
 22 23  2  0  0  0
 23 24  1  0  0  0
 24 25  2  0  0  0
 25 26  1  0  0  0
 26 27  2  0  0  0
  6  7  1  0  0  0
  7  8  1  0  0  0
  8 34  1  0  0  0
 34 35  1  0  0  0
 35 37  1  0  0  0
 37 38  2  0  0  0
 38 39  1  0  0  0
 39 40  2  0  0  0
 40 41  1  0  0  0
 40 42  1  0  0  0
  3  9  1  0  0  0
  9 10  2  0  0  0
 10 11  1  0  0  0
 11 12  1  0  0  0
 11 13  2  0  0  0
 13 14  1  0  0  0
 14 15  2  0  0  0
 15 16  1  0  0  0
 16 17  2  0  0  0
 16  1  1  0  0  0
  8  3  1  0  0  0
 42 37  1  0  0  0
 15  9  1  0  0  0
 27 18  1  0  0  0
 27 22  1  0  0  0
 30 33  1  0  0  0
 35 36  1  0  0  0
M  END
> <minimizedAffinity>
-9.00309

> <CNNscore>
0.1867489964

> <CNNaffinity>
6.8085517883

> <CNN_VS>
1.2714902163

> <CNNaffinity_variance>
0.2597702146

$$$$



 42 47  0  0  0  0  0  0  0  0999 V2000
   10.4774    0.8252   23.3369 N   0  0  0  0  0  0  0  0  0  0  0  0
    9.0720    0.4579   23.7107 C   0  0  0  0  0  0  0  0  0  0  0  0
    8.8194   -0.6890   24.6438 C   0  0  0  0  0  0  0  0  0  0  0  0
    8.4139   -1.8047   25.5607 C   0  0  0  0  0  0  0  0  0  0  0  0
    8.9133   -2.6828   26.2359 O   0  0  0  0  0  0  0  0  0  0  0  0
    6.9165   -1.8104   25.6499 N   0  0  0  0  0  0  0  0  0  0  0  0
    6.3966   -0.6981   24.7882 C   0  0  0  0  0  0  0  0  0  0  0  0
    7.5727   -0.0051   24.1664 C   0  0  0  0  0  0  0  0  0  0  0  0
    9.9724   -1.4687   25.2033 C   0  0  0  0  0  0  0  0  0  0  0  0
    9.7199   -2.6155   26.1364 C   0  0  0  0  0  0  0  0  0  0  0  0
   10.8728   -3.3951   26.6958 C   0  0  0  0  0  0  0  0  0  0  0  0
   10.6203   -4.5421   27.6290 Cl  0  0  0  0  0  0  0  0  0  0  0  0
   12.2783   -3.0278   26.3220 C   0  0  0  0  0  0  0  0  0  0  0  0
   12.5308   -1.8809   25.3888 C   0  0  0  0  0  0  0  0  0  0  0  0
   11.3779   -1.1013   24.8295 C   0  0  0  0  0  0  0  0  0  0  0  0
   11.6304    0.0456   23.8963 C   0  0  0  0  0  0  0  0  0  0  0  0
   13.0359    0.4129   23.5225 O   0  0  0  0  0  0  0  0  0  0  0  0
    6.0851   -2.7613   26.4588 C   0  0  0  0  0  0  0  0  0  0  0  0
    5.7826   -4.1314   25.9282 C   0  0  0  0  0  0  0  0  0  0  0  0
    4.9512   -5.0823   26.7371 N   0  0  0  0  0  0  0  0  0  0  0  0
    4.4222   -4.6632   28.0767 C   0  0  0  0  0  0  0  0  0  0  0  0
    4.7246   -3.2932   28.6073 C   0  0  0  0  0  0  0  0  0  0  0  0
    4.1955   -2.8741   29.9470 C   0  0  0  0  0  0  0  0  0  0  0  0
    4.4979   -1.5041   30.4775 C   0  0  0  0  0  0  0  0  0  0  0  0
    5.3294   -0.5531   29.6686 C   0  0  0  0  0  0  0  0  0  0  0  0
    5.8584   -0.9722   28.3290 C   0  0  0  0  0  0  0  0  0  0  0  0
    5.5560   -2.3423   27.7984 C   0  0  0  0  0  0  0  0  0  0  0  0
   10.7299    1.9721   22.4037 C   0  0  0  0  0  0  0  0  0  0  0  0
    9.5207    5.6247   23.3767 C   0  0  0  0  0  0  0  0  0  0  0  0
    9.5060    4.2197   22.8515 N   0  0  0  0  0  0  0  0  0  0  0  0
   10.7446    3.3771   22.9289 C   0  0  0  0  0  0  0  0  0  0  0  0
   11.9979    3.9395   23.5315 O   0  0  0  0  0  0  0  0  0  0  0  0
    8.6835    3.8506   22.4559 H   0  0  0  0  0  0  0  0  0  0  0  0
    7.5126    1.1663   23.2313 C   0  0  0  0  0  0  0  0  0  0  0  0
    6.3008    1.3798   22.3735 N   0  0  0  0  0  0  0  0  0  0  0  0
    5.5006    1.8117   22.7508 H   0  0  0  0  0  0  0  0  0  0  0  0
    6.3082    0.9352   20.9409 C   0  0  0  0  0  0  0  0  0  0  0  0
    7.3523    0.0780   20.2891 C   0  0  0  0  0  0  0  0  0  0  0  0
    6.9621   -0.1171   18.8540 N   0  0  0  0  0  0  0  0  0  0  0  0
    5.6769    0.6196   18.6188 C   0  0  0  0  0  0  0  0  0  0  0  0
    4.9274    0.6930   17.3215 C   0  0  0  0  0  0  0  0  0  0  0  0
    5.2727    1.2700   19.9086 S   0  0  0  0  0  0  0  0  0  0  0  0
 29 30  1  0  0  0
 30 31  1  0  0  0
 31 32  2  0  0  0
 31 28  1  0  0  0
 28  1  1  0  0  0
  1  2  1  0  0  0
  3  2  1  0  0  0
  3  4  1  0  0  0
  4  5  2  0  0  0
  4  6  1  0  0  0
  6 18  1  0  0  0
 18 19  2  0  0  0
 19 20  1  0  0  0
 20 21  2  0  0  0
 21 22  1  0  0  0
 22 23  2  0  0  0
 23 24  1  0  0  0
 24 25  2  0  0  0
 25 26  1  0  0  0
 26 27  2  0  0  0
  6  7  1  0  0  0
  7  8  1  0  0  0
  8 34  1  0  0  0
 34 35  1  0  0  0
 35 37  1  0  0  0
 37 38  2  0  0  0
 38 39  1  0  0  0
 39 40  2  0  0  0
 40 41  1  0  0  0
 40 42  1  0  0  0
  3  9  1  0  0  0
  9 10  2  0  0  0
 10 11  1  0  0  0
 11 12  1  0  0  0
 11 13  2  0  0  0
 13 14  1  0  0  0
 14 15  2  0  0  0
 15 16  1  0  0  0
 16 17  2  0  0  0
 16  1  1  0  0  0
  8  3  1  0  0  0
 42 37  1  0  0  0
 15  9  1  0  0  0
 27 18  1  0  0  0
 27 22  1  0  0  0
 30 33  1  0  0  0
 35 36  1  0  0  0
M  END
> <minimizedAffinity>
-8.61649

> <CNNscore>
0.1814664900

> <CNNaffinity>
6.8233537674

> <CNN_VS>
1.2382100821

> <CNNaffinity_variance>
0.1618434638

$$$$



 42 47  0  0  0  0  0  0  0  0999 V2000
   10.8752    1.6594   22.6421 N   0  0  0  0  0  0  0  0  0  0  0  0
    9.4976    1.2508   23.0725 C   0  0  0  0  0  0  0  0  0  0  0  0
    9.3094    0.0329   23.9277 C   0  0  0  0  0  0  0  0  0  0  0  0
    8.9673   -1.1541   24.7786 C   0  0  0  0  0  0  0  0  0  0  0  0
    9.5122   -2.0767   25.3515 O   0  0  0  0  0  0  0  0  0  0  0  0
    7.4785   -1.1811   24.9596 N   0  0  0  0  0  0  0  0  0  0  0  0
    6.9005   -0.0107   24.2206 C   0  0  0  0  0  0  0  0  0  0  0  0
    8.0320    0.7395   23.5828 C   0  0  0  0  0  0  0  0  0  0  0  0
   10.4988   -0.7763   24.3525 C   0  0  0  0  0  0  0  0  0  0  0  0
   10.3107   -1.9942   25.2077 C   0  0  0  0  0  0  0  0  0  0  0  0
   11.5001   -2.8033   25.6325 C   0  0  0  0  0  0  0  0  0  0  0  0
   11.3119   -4.0213   26.4878 Cl  0  0  0  0  0  0  0  0  0  0  0  0
   12.8777   -2.3947   25.2021 C   0  0  0  0  0  0  0  0  0  0  0  0
   13.0658   -1.1769   24.3469 C   0  0  0  0  0  0  0  0  0  0  0  0
   11.8764   -0.3677   23.9221 C   0  0  0  0  0  0  0  0  0  0  0  0
   12.0646    0.8502   23.0668 C   0  0  0  0  0  0  0  0  0  0  0  0
   13.4422    1.2589   22.6364 O   0  0  0  0  0  0  0  0  0  0  0  0
    6.7039   -2.1996   25.7422 C   0  0  0  0  0  0  0  0  0  0  0  0
    6.2977   -1.9085   27.1566 C   0  0  0  0  0  0  0  0  0  0  0  0
    5.5230   -2.9270   27.9392 N   0  0  0  0  0  0  0  0  0  0  0  0
    5.1545   -4.2366   27.3075 C   0  0  0  0  0  0  0  0  0  0  0  0
    5.5607   -4.5277   25.8931 C   0  0  0  0  0  0  0  0  0  0  0  0
    5.1921   -5.8374   25.2614 C   0  0  0  0  0  0  0  0  0  0  0  0
    5.5983   -6.1284   23.8470 C   0  0  0  0  0  0  0  0  0  0  0  0
    6.3729   -5.1099   23.0644 C   0  0  0  0  0  0  0  0  0  0  0  0
    6.7415   -3.8003   23.6961 C   0  0  0  0  0  0  0  0  0  0  0  0
    6.3353   -3.5092   25.1105 C   0  0  0  0  0  0  0  0  0  0  0  0
   11.0633    2.8773   21.7868 C   0  0  0  0  0  0  0  0  0  0  0  0
   10.8156    6.4736   23.4467 C   0  0  0  0  0  0  0  0  0  0  0  0
   10.4146    5.1714   22.8195 N   0  0  0  0  0  0  0  0  0  0  0  0
   11.4643    4.1795   22.4140 C   0  0  0  0  0  0  0  0  0  0  0  0
   12.9150    4.4899   22.6358 O   0  0  0  0  0  0  0  0  0  0  0  0
    9.4625    4.9676   22.6740 H   0  0  0  0  0  0  0  0  0  0  0  0
    7.9079    1.9789   22.7470 C   0  0  0  0  0  0  0  0  0  0  0  0
    6.5663    2.6207   22.5518 N   0  0  0  0  0  0  0  0  0  0  0  0
    6.2459    3.2961   23.1924 H   0  0  0  0  0  0  0  0  0  0  0  0
    5.7129    2.2334   21.3806 C   0  0  0  0  0  0  0  0  0  0  0  0
    5.9541    1.0751   20.4586 C   0  0  0  0  0  0  0  0  0  0  0  0
    4.8587    1.0624   19.4340 N   0  0  0  0  0  0  0  0  0  0  0  0
    3.9404    2.2128   19.7228 C   0  0  0  0  0  0  0  0  0  0  0  0
    2.7102    2.5757   18.9450 C   0  0  0  0  0  0  0  0  0  0  0  0
    4.4684    2.9366   20.9259 S   0  0  0  0  0  0  0  0  0  0  0  0
 29 30  1  0  0  0
 30 31  1  0  0  0
 31 32  2  0  0  0
 31 28  1  0  0  0
 28  1  1  0  0  0
  1  2  1  0  0  0
  3  2  1  0  0  0
  3  4  1  0  0  0
  4  5  2  0  0  0
  4  6  1  0  0  0
  6 18  1  0  0  0
 18 19  2  0  0  0
 19 20  1  0  0  0
 20 21  2  0  0  0
 21 22  1  0  0  0
 22 23  2  0  0  0
 23 24  1  0  0  0
 24 25  2  0  0  0
 25 26  1  0  0  0
 26 27  2  0  0  0
  6  7  1  0  0  0
  7  8  1  0  0  0
  8 34  1  0  0  0
 34 35  1  0  0  0
 35 37  1  0  0  0
 37 38  2  0  0  0
 38 39  1  0  0  0
 39 40  2  0  0  0
 40 41  1  0  0  0
 40 42  1  0  0  0
  3  9  1  0  0  0
  9 10  2  0  0  0
 10 11  1  0  0  0
 11 12  1  0  0  0
 11 13  2  0  0  0
 13 14  1  0  0  0
 14 15  2  0  0  0
 15 16  1  0  0  0
 16 17  2  0  0  0
 16  1  1  0  0  0
  8  3  1  0  0  0
 42 37  1  0  0  0
 15  9  1  0  0  0
 27 18  1  0  0  0
 27 22  1  0  0  0
 30 33  1  0  0  0
 35 36  1  0  0  0
M  END
> <minimizedAffinity>
-8.70403

> <CNNscore>
0.1599839926

> <CNNaffinity>
7.1469545364

> <CNN_VS>
1.1433982849

> <CNNaffinity_variance>
0.1746541858

$$$$



 42 47  0  0  0  0  0  0  0  0999 V2000
    6.6405   -3.1684   23.9733 N   0  0  0  0  0  0  0  0  0  0  0  0
    6.8732   -1.7971   23.4117 C   0  0  0  0  0  0  0  0  0  0  0  0
    8.1987   -1.1222   23.6056 C   0  0  0  0  0  0  0  0  0  0  0  0
    9.4650   -0.3262   23.7189 C   0  0  0  0  0  0  0  0  0  0  0  0
   10.5801   -0.4137   24.1936 O   0  0  0  0  0  0  0  0  0  0  0  0
    9.2549    0.9818   23.0154 N   0  0  0  0  0  0  0  0  0  0  0  0
    7.8587    0.9943   22.4672 C   0  0  0  0  0  0  0  0  0  0  0  0
    7.2060   -0.3061   22.8320 C   0  0  0  0  0  0  0  0  0  0  0  0
    9.2915   -1.8186   24.3611 C   0  0  0  0  0  0  0  0  0  0  0  0
   10.6170   -1.1437   24.5550 C   0  0  0  0  0  0  0  0  0  0  0  0
   11.7097   -1.8401   25.3105 C   0  0  0  0  0  0  0  0  0  0  0  0
   13.0353   -1.1652   25.5045 Cl  0  0  0  0  0  0  0  0  0  0  0  0
   11.4770   -3.2114   25.8721 C   0  0  0  0  0  0  0  0  0  0  0  0
   10.1516   -3.8863   25.6782 C   0  0  0  0  0  0  0  0  0  0  0  0
    9.0588   -3.1899   24.9227 C   0  0  0  0  0  0  0  0  0  0  0  0
    7.7333   -3.8648   24.7288 C   0  0  0  0  0  0  0  0  0  0  0  0
    7.5006   -5.2361   25.2904 O   0  0  0  0  0  0  0  0  0  0  0  0
   10.2638    2.0839   22.8832 C   0  0  0  0  0  0  0  0  0  0  0  0
   11.7060    1.7546   22.6346 C   0  0  0  0  0  0  0  0  0  0  0  0
   12.7149    2.8567   22.5025 N   0  0  0  0  0  0  0  0  0  0  0  0
   12.2817    4.2880   22.6190 C   0  0  0  0  0  0  0  0  0  0  0  0
   10.8395    4.6173   22.8676 C   0  0  0  0  0  0  0  0  0  0  0  0
   10.4063    6.0487   22.9840 C   0  0  0  0  0  0  0  0  0  0  0  0
    8.9642    6.3779   23.2326 C   0  0  0  0  0  0  0  0  0  0  0  0
    7.9552    5.2758   23.3648 C   0  0  0  0  0  0  0  0  0  0  0  0
    8.3884    3.8445   23.2483 C   0  0  0  0  0  0  0  0  0  0  0  0
    9.8306    3.5152   22.9997 C   0  0  0  0  0  0  0  0  0  0  0  0
    5.3150   -3.8432   23.7793 C   0  0  0  0  0  0  0  0  0  0  0  0
    5.6253   -6.5186   20.8646 C   0  0  0  0  0  0  0  0  0  0  0  0
    5.7035   -5.2194   21.6102 N   0  0  0  0  0  0  0  0  0  0  0  0
    5.2368   -5.1424   23.0337 C   0  0  0  0  0  0  0  0  0  0  0  0
    4.6920   -6.3646   23.7116 O   0  0  0  0  0  0  0  0  0  0  0  0
    6.0611   -4.4173   21.1653 H   0  0  0  0  0  0  0  0  0  0  0  0
    5.8062   -0.7180   22.4842 C   0  0  0  0  0  0  0  0  0  0  0  0
    4.6959    0.2897   22.5246 N   0  0  0  0  0  0  0  0  0  0  0  0
    4.3072    0.5595   23.3880 H   0  0  0  0  0  0  0  0  0  0  0  0
    4.1776    0.8863   21.2497 C   0  0  0  0  0  0  0  0  0  0  0  0
    4.7734    0.7046   19.8852 C   0  0  0  0  0  0  0  0  0  0  0  0
    3.9365    1.4754   18.9076 N   0  0  0  0  0  0  0  0  0  0  0  0
    2.8234    2.1333   19.6680 C   0  0  0  0  0  0  0  0  0  0  0  0
    1.7499    3.0027   19.0835 C   0  0  0  0  0  0  0  0  0  0  0  0
    2.9724    1.7692   21.1155 S   0  0  0  0  0  0  0  0  0  0  0  0
 29 30  1  0  0  0
 30 31  1  0  0  0
 31 32  2  0  0  0
 31 28  1  0  0  0
 28  1  1  0  0  0
  1  2  1  0  0  0
  3  2  1  0  0  0
  3  4  1  0  0  0
  4  5  2  0  0  0
  4  6  1  0  0  0
  6 18  1  0  0  0
 18 19  2  0  0  0
 19 20  1  0  0  0
 20 21  2  0  0  0
 21 22  1  0  0  0
 22 23  2  0  0  0
 23 24  1  0  0  0
 24 25  2  0  0  0
 25 26  1  0  0  0
 26 27  2  0  0  0
  6  7  1  0  0  0
  7  8  1  0  0  0
  8 34  1  0  0  0
 34 35  1  0  0  0
 35 37  1  0  0  0
 37 38  2  0  0  0
 38 39  1  0  0  0
 39 40  2  0  0  0
 40 41  1  0  0  0
 40 42  1  0  0  0
  3  9  1  0  0  0
  9 10  2  0  0  0
 10 11  1  0  0  0
 11 12  1  0  0  0
 11 13  2  0  0  0
 13 14  1  0  0  0
 14 15  2  0  0  0
 15 16  1  0  0  0
 16 17  2  0  0  0
 16  1  1  0  0  0
  8  3  1  0  0  0
 42 37  1  0  0  0
 15  9  1  0  0  0
 27 18  1  0  0  0
 27 22  1  0  0  0
 30 33  1  0  0  0
 35 36  1  0  0  0
M  END
> <minimizedAffinity>
-8.18536

> <CNNscore>
0.1579343677

> <CNNaffinity>
6.8876304626

> <CNN_VS>
1.0877935886

> <CNNaffinity_variance>
0.1465037912

$$$$



 42 47  0  0  0  0  0  0  0  0999 V2000
   10.0807    0.8972   23.1678 N   0  0  0  0  0  0  0  0  0  0  0  0
    8.7013    0.4004   23.4846 C   0  0  0  0  0  0  0  0  0  0  0  0
    8.5186   -0.7698   24.4050 C   0  0  0  0  0  0  0  0  0  0  0  0
    8.1814   -1.9230   25.3030 C   0  0  0  0  0  0  0  0  0  0  0  0
    8.7323   -2.7550   25.9961 O   0  0  0  0  0  0  0  0  0  0  0  0
    6.6885   -2.0665   25.3324 N   0  0  0  0  0  0  0  0  0  0  0  0
    6.1031   -1.0021   24.4525 C   0  0  0  0  0  0  0  0  0  0  0  0
    7.2341   -0.2007   23.8794 C   0  0  0  0  0  0  0  0  0  0  0  0
    9.7153   -1.4433   25.0086 C   0  0  0  0  0  0  0  0  0  0  0  0
    9.5326   -2.6135   25.9290 C   0  0  0  0  0  0  0  0  0  0  0  0
   10.7293   -3.2869   26.5326 C   0  0  0  0  0  0  0  0  0  0  0  0
   10.5466   -4.4572   27.4530 Cl  0  0  0  0  0  0  0  0  0  0  0  0
   12.1087   -2.7901   26.2158 C   0  0  0  0  0  0  0  0  0  0  0  0
   12.2915   -1.6199   25.2954 C   0  0  0  0  0  0  0  0  0  0  0  0
   11.0947   -0.9465   24.6918 C   0  0  0  0  0  0  0  0  0  0  0  0
   11.2774    0.2238   23.7713 C   0  0  0  0  0  0  0  0  0  0  0  0
   12.6569    0.7206   23.4545 O   0  0  0  0  0  0  0  0  0  0  0  0
    5.9167   -3.0941   26.1059 C   0  0  0  0  0  0  0  0  0  0  0  0
    5.5574   -4.4017   25.4648 C   0  0  0  0  0  0  0  0  0  0  0  0
    4.7856   -5.4293   26.2383 N   0  0  0  0  0  0  0  0  0  0  0  0
    4.3730   -5.1493   27.6530 C   0  0  0  0  0  0  0  0  0  0  0  0
    4.7323   -3.8417   28.2941 C   0  0  0  0  0  0  0  0  0  0  0  0
    4.3197   -3.5617   29.7089 C   0  0  0  0  0  0  0  0  0  0  0  0
    4.6791   -2.2541   30.3500 C   0  0  0  0  0  0  0  0  0  0  0  0
    5.4509   -1.2265   29.5765 C   0  0  0  0  0  0  0  0  0  0  0  0
    5.8635   -1.5065   28.1618 C   0  0  0  0  0  0  0  0  0  0  0  0
    5.5042   -2.8141   27.5206 C   0  0  0  0  0  0  0  0  0  0  0  0
   10.2634    2.0675   22.2473 C   0  0  0  0  0  0  0  0  0  0  0  0
    9.6606    5.8229   23.3801 C   0  0  0  0  0  0  0  0  0  0  0  0
    9.4126    4.4557   22.8149 N   0  0  0  0  0  0  0  0  0  0  0  0
   10.5113    3.4346   22.8125 C   0  0  0  0  0  0  0  0  0  0  0  0
   11.8581    3.7806   23.3753 O   0  0  0  0  0  0  0  0  0  0  0  0
    8.5287    4.2287   22.4456 H   0  0  0  0  0  0  0  0  0  0  0  0
    7.1036    0.9652   22.9446 C   0  0  0  0  0  0  0  0  0  0  0  0
    5.8520    1.1427   22.1372 N   0  0  0  0  0  0  0  0  0  0  0  0
    5.3780    0.3552   21.7845 H   0  0  0  0  0  0  0  0  0  0  0  0
    5.3227    2.5200   21.8671 C   0  0  0  0  0  0  0  0  0  0  0  0
    6.1470    3.7512   21.6335 C   0  0  0  0  0  0  0  0  0  0  0  0
    5.2098    4.8999   21.4052 N   0  0  0  0  0  0  0  0  0  0  0  0
    3.8063    4.3787   21.4978 C   0  0  0  0  0  0  0  0  0  0  0  0
    2.5532    5.1865   21.3337 C   0  0  0  0  0  0  0  0  0  0  0  0
    3.8761    2.9077   21.7833 S   0  0  0  0  0  0  0  0  0  0  0  0
 29 30  1  0  0  0
 30 31  1  0  0  0
 31 32  2  0  0  0
 31 28  1  0  0  0
 28  1  1  0  0  0
  1  2  1  0  0  0
  3  2  1  0  0  0
  3  4  1  0  0  0
  4  5  2  0  0  0
  4  6  1  0  0  0
  6 18  1  0  0  0
 18 19  2  0  0  0
 19 20  1  0  0  0
 20 21  2  0  0  0
 21 22  1  0  0  0
 22 23  2  0  0  0
 23 24  1  0  0  0
 24 25  2  0  0  0
 25 26  1  0  0  0
 26 27  2  0  0  0
  6  7  1  0  0  0
  7  8  1  0  0  0
  8 34  1  0  0  0
 34 35  1  0  0  0
 35 37  1  0  0  0
 37 38  2  0  0  0
 38 39  1  0  0  0
 39 40  2  0  0  0
 40 41  1  0  0  0
 40 42  1  0  0  0
  3  9  1  0  0  0
  9 10  2  0  0  0
 10 11  1  0  0  0
 11 12  1  0  0  0
 11 13  2  0  0  0
 13 14  1  0  0  0
 14 15  2  0  0  0
 15 16  1  0  0  0
 16 17  2  0  0  0
 16  1  1  0  0  0
  8  3  1  0  0  0
 42 37  1  0  0  0
 15  9  1  0  0  0
 27 18  1  0  0  0
 27 22  1  0  0  0
 30 33  1  0  0  0
 35 36  1  0  0  0
M  END
> <minimizedAffinity>
-7.71018

> <CNNscore>
0.1226325631

> <CNNaffinity>
6.7432732582

> <CNN_VS>
0.8269448876

> <CNNaffinity_variance>
0.2454737425

$$$$



 42 47  0  0  0  0  0  0  0  0999 V2000
    9.9376    0.5059   22.8229 N   0  0  0  0  0  0  0  0  0  0  0  0
    8.7670   -0.4195   22.6703 C   0  0  0  0  0  0  0  0  0  0  0  0
    8.6972   -1.6804   23.4798 C   0  0  0  0  0  0  0  0  0  0  0  0
    8.4907   -2.9700   24.2175 C   0  0  0  0  0  0  0  0  0  0  0  0
    9.0379   -3.6625   25.0526 O   0  0  0  0  0  0  0  0  0  0  0  0
    7.1934   -3.5653   23.7564 N   0  0  0  0  0  0  0  0  0  0  0  0
    6.5981   -2.6435   22.7337 C   0  0  0  0  0  0  0  0  0  0  0  0
    7.5275   -1.4786   22.5627 C   0  0  0  0  0  0  0  0  0  0  0  0
    9.7981   -2.0160   24.4418 C   0  0  0  0  0  0  0  0  0  0  0  0
    9.7283   -3.2768   25.2513 C   0  0  0  0  0  0  0  0  0  0  0  0
   10.8292   -3.6124   26.2132 C   0  0  0  0  0  0  0  0  0  0  0  0
   10.7595   -4.8733   27.0227 Cl  0  0  0  0  0  0  0  0  0  0  0  0
   11.9999   -2.6870   26.3658 C   0  0  0  0  0  0  0  0  0  0  0  0
   12.0696   -1.4261   25.5563 C   0  0  0  0  0  0  0  0  0  0  0  0
   10.9688   -1.0906   24.5944 C   0  0  0  0  0  0  0  0  0  0  0  0
   11.0385    0.1704   23.7848 C   0  0  0  0  0  0  0  0  0  0  0  0
   12.2091    1.0957   23.9374 O   0  0  0  0  0  0  0  0  0  0  0  0
    6.5963   -4.8557   24.2342 C   0  0  0  0  0  0  0  0  0  0  0  0
    7.1732   -6.1632   23.7785 C   0  0  0  0  0  0  0  0  0  0  0  0
    6.5760   -7.4536   24.2563 N   0  0  0  0  0  0  0  0  0  0  0  0
    5.4020   -7.4365   25.1897 C   0  0  0  0  0  0  0  0  0  0  0  0
    4.8251   -6.1290   25.6454 C   0  0  0  0  0  0  0  0  0  0  0  0
    3.6510   -6.1119   26.5789 C   0  0  0  0  0  0  0  0  0  0  0  0
    3.0742   -4.8043   27.0345 C   0  0  0  0  0  0  0  0  0  0  0  0
    3.6713   -3.5139   26.5567 C   0  0  0  0  0  0  0  0  0  0  0  0
    4.8453   -3.5310   25.6233 C   0  0  0  0  0  0  0  0  0  0  0  0
    5.4222   -4.8386   25.1676 C   0  0  0  0  0  0  0  0  0  0  0  0
   10.0073    1.7668   22.0134 C   0  0  0  0  0  0  0  0  0  0  0  0
   10.2451    5.5745   23.1064 C   0  0  0  0  0  0  0  0  0  0  0  0
   10.5852    4.2576   22.4740 N   0  0  0  0  0  0  0  0  0  0  0  0
    9.6672    3.0838   22.6457 C   0  0  0  0  0  0  0  0  0  0  0  0
    8.4090    3.2270   23.4499 O   0  0  0  0  0  0  0  0  0  0  0  0
   11.4110    4.1636   21.9463 H   0  0  0  0  0  0  0  0  0  0  0  0
    7.3230   -0.3161   21.6371 C   0  0  0  0  0  0  0  0  0  0  0  0
    5.9345    0.1034   21.2552 N   0  0  0  0  0  0  0  0  0  0  0  0
    5.6432    0.0448   20.3167 H   0  0  0  0  0  0  0  0  0  0  0  0
    4.9898    0.6123   22.3033 C   0  0  0  0  0  0  0  0  0  0  0  0
    3.5868    1.0887   22.0692 C   0  0  0  0  0  0  0  0  0  0  0  0
    3.0121    1.5050   23.3907 N   0  0  0  0  0  0  0  0  0  0  0  0
    4.0599    1.2860   24.4416 C   0  0  0  0  0  0  0  0  0  0  0  0
    3.9114    1.5689   25.9071 C   0  0  0  0  0  0  0  0  0  0  0  0
    5.2821    0.7342   23.7695 S   0  0  0  0  0  0  0  0  0  0  0  0
 29 30  1  0  0  0
 30 31  1  0  0  0
 31 32  2  0  0  0
 31 28  1  0  0  0
 28  1  1  0  0  0
  1  2  1  0  0  0
  3  2  1  0  0  0
  3  4  1  0  0  0
  4  5  2  0  0  0
  4  6  1  0  0  0
  6 18  1  0  0  0
 18 19  2  0  0  0
 19 20  1  0  0  0
 20 21  2  0  0  0
 21 22  1  0  0  0
 22 23  2  0  0  0
 23 24  1  0  0  0
 24 25  2  0  0  0
 25 26  1  0  0  0
 26 27  2  0  0  0
  6  7  1  0  0  0
  7  8  1  0  0  0
  8 34  1  0  0  0
 34 35  1  0  0  0
 35 37  1  0  0  0
 37 38  2  0  0  0
 38 39  1  0  0  0
 39 40  2  0  0  0
 40 41  1  0  0  0
 40 42  1  0  0  0
  3  9  1  0  0  0
  9 10  2  0  0  0
 10 11  1  0  0  0
 11 12  1  0  0  0
 11 13  2  0  0  0
 13 14  1  0  0  0
 14 15  2  0  0  0
 15 16  1  0  0  0
 16 17  2  0  0  0
 16  1  1  0  0  0
  8  3  1  0  0  0
 42 37  1  0  0  0
 15  9  1  0  0  0
 27 18  1  0  0  0
 27 22  1  0  0  0
 30 33  1  0  0  0
 35 36  1  0  0  0
M  END
> <minimizedAffinity>
-7.81008

> <CNNscore>
0.1211889461

> <CNNaffinity>
6.8904190063

> <CNN_VS>
0.8350425959

> <CNNaffinity_variance>
0.2072381079

$$$$



 42 47  0  0  0  0  0  0  0  0999 V2000
   10.6878    1.5559   22.8769 N   0  0  0  0  0  0  0  0  0  0  0  0
    9.3033    1.2839   23.3859 C   0  0  0  0  0  0  0  0  0  0  0  0
    9.0594    0.1350   24.3189 C   0  0  0  0  0  0  0  0  0  0  0  0
    8.6644   -0.9711   25.2519 C   0  0  0  0  0  0  0  0  0  0  0  0
    9.1610   -1.9009   25.8562 O   0  0  0  0  0  0  0  0  0  0  0  0
    7.1876   -0.8682   25.4939 N   0  0  0  0  0  0  0  0  0  0  0  0
    6.6699    0.3014   24.7105 C   0  0  0  0  0  0  0  0  0  0  0  0
    7.8267    0.9215   23.9843 C   0  0  0  0  0  0  0  0  0  0  0  0
   10.2001   -0.7420   24.7429 C   0  0  0  0  0  0  0  0  0  0  0  0
    9.9561   -1.8910   25.6758 C   0  0  0  0  0  0  0  0  0  0  0  0
   11.0968   -2.7680   26.0998 C   0  0  0  0  0  0  0  0  0  0  0  0
   10.8529   -3.9170   27.0328 Cl  0  0  0  0  0  0  0  0  0  0  0  0
   12.4813   -2.4961   25.5908 C   0  0  0  0  0  0  0  0  0  0  0  0
   12.7252   -1.3471   24.6578 C   0  0  0  0  0  0  0  0  0  0  0  0
   11.5846   -0.4701   24.2339 C   0  0  0  0  0  0  0  0  0  0  0  0
   11.8285    0.6789   23.3009 C   0  0  0  0  0  0  0  0  0  0  0  0
   13.2130    0.9508   22.7918 O   0  0  0  0  0  0  0  0  0  0  0  0
    6.3719   -1.7758   26.3662 C   0  0  0  0  0  0  0  0  0  0  0  0
    6.1345   -3.1983   25.9539 C   0  0  0  0  0  0  0  0  0  0  0  0
    5.3187   -4.1059   26.8262 N   0  0  0  0  0  0  0  0  0  0  0  0
    4.7403   -3.5908   28.1108 C   0  0  0  0  0  0  0  0  0  0  0  0
    4.9777   -2.1683   28.5231 C   0  0  0  0  0  0  0  0  0  0  0  0
    4.3993   -1.6532   29.8078 C   0  0  0  0  0  0  0  0  0  0  0  0
    4.6368   -0.2306   30.2200 C   0  0  0  0  0  0  0  0  0  0  0  0
    5.4525    0.6769   29.3477 C   0  0  0  0  0  0  0  0  0  0  0  0
    6.0309    0.1618   28.0631 C   0  0  0  0  0  0  0  0  0  0  0  0
    5.7935   -1.2607   27.6508 C   0  0  0  0  0  0  0  0  0  0  0  0
   10.9317    2.7049   21.9439 C   0  0  0  0  0  0  0  0  0  0  0  0
   10.6736    6.3693   23.4457 C   0  0  0  0  0  0  0  0  0  0  0  0
   10.2758    5.0304   22.8987 N   0  0  0  0  0  0  0  0  0  0  0  0
   11.3294    4.0437   22.4909 C   0  0  0  0  0  0  0  0  0  0  0  0
   12.7809    4.3959   22.6301 O   0  0  0  0  0  0  0  0  0  0  0  0
    9.3232    4.7992   22.8073 H   0  0  0  0  0  0  0  0  0  0  0  0
    7.7621    2.1180   23.0819 C   0  0  0  0  0  0  0  0  0  0  0  0
    6.4453    2.5609   22.5167 N   0  0  0  0  0  0  0  0  0  0  0  0
    5.9913    3.3517   22.8878 H   0  0  0  0  0  0  0  0  0  0  0  0
    5.8200    1.7989   21.3860 C   0  0  0  0  0  0  0  0  0  0  0  0
    4.3980    1.9167   20.9234 C   0  0  0  0  0  0  0  0  0  0  0  0
    4.2061    0.9760   19.7709 N   0  0  0  0  0  0  0  0  0  0  0  0
    5.5095    0.2768   19.5213 C   0  0  0  0  0  0  0  0  0  0  0  0
    5.7697   -0.7506   18.4598 C   0  0  0  0  0  0  0  0  0  0  0  0
    6.5069    0.7854   20.5195 S   0  0  0  0  0  0  0  0  0  0  0  0
 29 30  1  0  0  0
 30 31  1  0  0  0
 31 32  2  0  0  0
 31 28  1  0  0  0
 28  1  1  0  0  0
  1  2  1  0  0  0
  3  2  1  0  0  0
  3  4  1  0  0  0
  4  5  2  0  0  0
  4  6  1  0  0  0
  6 18  1  0  0  0
 18 19  2  0  0  0
 19 20  1  0  0  0
 20 21  2  0  0  0
 21 22  1  0  0  0
 22 23  2  0  0  0
 23 24  1  0  0  0
 24 25  2  0  0  0
 25 26  1  0  0  0
 26 27  2  0  0  0
  6  7  1  0  0  0
  7  8  1  0  0  0
  8 34  1  0  0  0
 34 35  1  0  0  0
 35 37  1  0  0  0
 37 38  2  0  0  0
 38 39  1  0  0  0
 39 40  2  0  0  0
 40 41  1  0  0  0
 40 42  1  0  0  0
  3  9  1  0  0  0
  9 10  2  0  0  0
 10 11  1  0  0  0
 11 12  1  0  0  0
 11 13  2  0  0  0
 13 14  1  0  0  0
 14 15  2  0  0  0
 15 16  1  0  0  0
 16 17  2  0  0  0
 16  1  1  0  0  0
  8  3  1  0  0  0
 42 37  1  0  0  0
 15  9  1  0  0  0
 27 18  1  0  0  0
 27 22  1  0  0  0
 30 33  1  0  0  0
 35 36  1  0  0  0
M  END
> <minimizedAffinity>
-8.46593

> <CNNscore>
0.1093944311

> <CNNaffinity>
6.7813692093

> <CNN_VS>
0.7418439984

> <CNNaffinity_variance>
0.1886989772

$$$$
