


 27 31  0  0  0  0  0  0  0  0999 V2000
   -6.1765   -5.8958  -21.5456 C   0  0  0  0  0  0  0  0  0  0  0  0
   -6.0473   -4.4108  -21.7124 N   0  0  0  0  0  0  0  0  0  0  0  0
   -5.4466   -3.4609  -20.7190 C   0  0  0  0  0  0  0  0  0  0  0  0
   -4.8696   -3.8293  -19.3844 O   0  0  0  0  0  0  0  0  0  0  0  0
   -5.5243   -2.0778  -21.2945 N   0  0  0  0  0  0  0  0  0  0  0  0
   -6.1730   -2.1730  -22.6436 C   0  0  0  0  0  0  0  0  0  0  0  0
   -6.4498   -1.0275  -23.5716 O   0  0  0  0  0  0  0  0  0  0  0  0
   -6.4963   -3.6148  -22.9019 C   0  0  0  0  0  0  0  0  0  0  0  0
   -7.0156   -3.0253  -24.1797 C   0  0  0  0  0  0  0  0  0  0  0  0
   -7.4252   -4.3917  -24.6436 N   0  0  0  0  0  0  0  0  0  0  0  0
   -6.9058   -4.9812  -23.3657 C   0  0  0  0  0  0  0  0  0  0  0  0
   -5.0385   -0.8205  -20.6365 C   0  0  0  0  0  0  0  0  0  0  0  0
   -5.4424   -0.5078  -19.2261 C   0  0  0  0  0  0  0  0  0  0  0  0
   -4.9566    0.7496  -18.5681 N   0  0  0  0  0  0  0  0  0  0  0  0
   -4.0669    1.6943  -19.3204 C   0  0  0  0  0  0  0  0  0  0  0  0
   -3.6630    1.3816  -20.7308 C   0  0  0  0  0  0  0  0  0  0  0  0
   -2.7733    2.3263  -21.4830 C   0  0  0  0  0  0  0  0  0  0  0  0
   -2.3694    2.0137  -22.8933 C   0  0  0  0  0  0  0  0  0  0  0  0
   -2.8551    0.7563  -23.5514 C   0  0  0  0  0  0  0  0  0  0  0  0
   -3.7448   -0.1884  -22.7991 C   0  0  0  0  0  0  0  0  0  0  0  0
   -4.1487    0.1243  -21.3888 C   0  0  0  0  0  0  0  0  0  0  0  0
   -8.0820   -4.9412  -25.8751 S   0  0  0  0  0  0  0  0  0  0  0  0
   -9.0642   -5.6849  -25.0193 O   0  0  0  0  0  0  0  0  0  0  0  0
   -7.1000   -4.1974  -26.7309 O   0  0  0  0  0  0  0  0  0  0  0  0
   -8.7390   -5.4907  -27.1065 C   0  0  0  0  0  0  0  0  0  0  0  0
   -9.8590   -5.4626  -28.1039 C   0  0  0  0  0  0  0  0  0  0  0  0
   -8.7568   -6.4707  -28.2420 C   0  0  0  0  0  0  0  0  0  0  0  0
  1  2  1  0  0  0
  2  3  1  0  0  0
  3  4  2  0  0  0
  3  5  1  0  0  0
  5 12  1  0  0  0
 12 13  2  0  0  0
 13 14  1  0  0  0
 14 15  2  0  0  0
 15 16  1  0  0  0
 16 17  2  0  0  0
 17 18  1  0  0  0
 18 19  2  0  0  0
 19 20  1  0  0  0
 20 21  2  0  0  0
  5  6  1  0  0  0
  6  7  2  0  0  0
  6  8  1  0  0  0
  8  9  1  0  0  0
  9 10  1  0  0  0
 10 22  1  0  0  0
 22 23  2  0  0  0
 22 24  2  0  0  0
 22 25  1  0  0  0
 25 26  1  0  0  0
 26 27  1  0  0  0
 10 11  1  0  0  0
  8  2  1  0  0  0
 27 25  1  0  0  0
 21 12  1  0  0  0
 11  8  1  0  0  0
 21 16  1  0  0  0
M  END
> <minimizedAffinity>
-6.01555

> <CNNscore>
0.5823706985

> <CNNaffinity>
5.3588266373

> <CNN_VS>
3.1208236217

> <CNNaffinity_variance>
0.0498701669

$$$$



 27 31  0  0  0  0  0  0  0  0999 V2000
   -5.1810    0.3361  -17.8463 C   0  0  0  0  0  0  0  0  0  0  0  0
   -5.4281    0.0079  -19.2890 N   0  0  0  0  0  0  0  0  0  0  0  0
   -6.6039   -0.7486  -19.8322 C   0  0  0  0  0  0  0  0  0  0  0  0
   -7.7391   -1.3097  -19.0281 O   0  0  0  0  0  0  0  0  0  0  0  0
   -6.4454   -0.8454  -21.3207 N   0  0  0  0  0  0  0  0  0  0  0  0
   -5.1715   -0.1488  -21.6973 C   0  0  0  0  0  0  0  0  0  0  0  0
   -4.6226   -0.0048  -23.0859 O   0  0  0  0  0  0  0  0  0  0  0  0
   -4.5428    0.3787  -20.4417 C   0  0  0  0  0  0  0  0  0  0  0  0
   -3.5200    0.8504  -21.4323 C   0  0  0  0  0  0  0  0  0  0  0  0
   -2.7214    1.4590  -20.3180 N   0  0  0  0  0  0  0  0  0  0  0  0
   -3.7443    0.9873  -19.3273 C   0  0  0  0  0  0  0  0  0  0  0  0
   -7.3941   -1.5204  -22.2664 C   0  0  0  0  0  0  0  0  0  0  0  0
   -8.5897   -2.2530  -21.7337 C   0  0  0  0  0  0  0  0  0  0  0  0
   -9.5384   -2.9279  -22.6794 N   0  0  0  0  0  0  0  0  0  0  0  0
   -9.2915   -2.8704  -24.1578 C   0  0  0  0  0  0  0  0  0  0  0  0
   -8.0958   -2.1378  -24.6905 C   0  0  0  0  0  0  0  0  0  0  0  0
   -7.8489   -2.0802  -26.1689 C   0  0  0  0  0  0  0  0  0  0  0  0
   -6.6532   -1.3476  -26.7016 C   0  0  0  0  0  0  0  0  0  0  0  0
   -5.7045   -0.6727  -25.7559 C   0  0  0  0  0  0  0  0  0  0  0  0
   -5.9515   -0.7302  -24.2775 C   0  0  0  0  0  0  0  0  0  0  0  0
   -7.1471   -1.4628  -23.7448 C   0  0  0  0  0  0  0  0  0  0  0  0
   -1.4335    2.2230  -20.2303 S   0  0  0  0  0  0  0  0  0  0  0  0
   -2.1916    3.4552  -19.8338 O   0  0  0  0  0  0  0  0  0  0  0  0
   -0.6755    0.9909  -20.6269 O   0  0  0  0  0  0  0  0  0  0  0  0
   -0.1457    2.9871  -20.1426 C   0  0  0  0  0  0  0  0  0  0  0  0
    1.3474    3.0362  -20.2773 C   0  0  0  0  0  0  0  0  0  0  0  0
    0.5917    4.2615  -19.8560 C   0  0  0  0  0  0  0  0  0  0  0  0
  1  2  1  0  0  0
  2  3  1  0  0  0
  3  4  2  0  0  0
  3  5  1  0  0  0
  5 12  1  0  0  0
 12 13  2  0  0  0
 13 14  1  0  0  0
 14 15  2  0  0  0
 15 16  1  0  0  0
 16 17  2  0  0  0
 17 18  1  0  0  0
 18 19  2  0  0  0
 19 20  1  0  0  0
 20 21  2  0  0  0
  5  6  1  0  0  0
  6  7  2  0  0  0
  6  8  1  0  0  0
  8  9  1  0  0  0
  9 10  1  0  0  0
 10 22  1  0  0  0
 22 23  2  0  0  0
 22 24  2  0  0  0
 22 25  1  0  0  0
 25 26  1  0  0  0
 26 27  1  0  0  0
 10 11  1  0  0  0
  8  2  1  0  0  0
 27 25  1  0  0  0
 21 12  1  0  0  0
 11  8  1  0  0  0
 21 16  1  0  0  0
M  END
> <minimizedAffinity>
-6.90235

> <CNNscore>
0.5275410414

> <CNNaffinity>
5.1957464218

> <CNN_VS>
2.7409694195

> <CNNaffinity_variance>
0.0215342045

$$$$



 27 31  0  0  0  0  0  0  0  0999 V2000
   -4.9669   -0.4707  -21.7011 C   0  0  0  0  0  0  0  0  0  0  0  0
   -6.2088   -0.7132  -22.5066 N   0  0  0  0  0  0  0  0  0  0  0  0
   -7.6089   -0.7736  -21.9717 C   0  0  0  0  0  0  0  0  0  0  0  0
   -8.0128   -0.6020  -20.5373 O   0  0  0  0  0  0  0  0  0  0  0  0
   -8.5341   -1.0356  -23.1229 N   0  0  0  0  0  0  0  0  0  0  0  0
   -7.7058   -1.1373  -24.3693 C   0  0  0  0  0  0  0  0  0  0  0  0
   -8.2236   -1.3932  -25.7537 O   0  0  0  0  0  0  0  0  0  0  0  0
   -6.2687   -0.9380  -23.9885 C   0  0  0  0  0  0  0  0  0  0  0  0
   -6.0946   -1.1387  -25.4647 C   0  0  0  0  0  0  0  0  0  0  0  0
   -4.6120   -0.9687  -25.3129 N   0  0  0  0  0  0  0  0  0  0  0  0
   -4.7861   -0.7681  -23.8366 C   0  0  0  0  0  0  0  0  0  0  0  0
  -10.0257   -1.1721  -23.0419 C   0  0  0  0  0  0  0  0  0  0  0  0
  -10.6401   -2.4966  -22.6982 C   0  0  0  0  0  0  0  0  0  0  0  0
  -12.1316   -2.6331  -22.6173 N   0  0  0  0  0  0  0  0  0  0  0  0
  -13.0088   -1.4450  -22.8800 C   0  0  0  0  0  0  0  0  0  0  0  0
  -12.3945   -0.1205  -23.2237 C   0  0  0  0  0  0  0  0  0  0  0  0
  -13.2716    1.0676  -23.4864 C   0  0  0  0  0  0  0  0  0  0  0  0
  -12.6573    2.3921  -23.8301 C   0  0  0  0  0  0  0  0  0  0  0  0
  -11.1657    2.5286  -23.9111 C   0  0  0  0  0  0  0  0  0  0  0  0
  -10.2885    1.3405  -23.6484 C   0  0  0  0  0  0  0  0  0  0  0  0
  -10.9029    0.0160  -23.3047 C   0  0  0  0  0  0  0  0  0  0  0  0
   -3.4404   -0.9904  -26.2494 S   0  0  0  0  0  0  0  0  0  0  0  0
   -3.4343    0.5094  -26.2764 O   0  0  0  0  0  0  0  0  0  0  0  0
   -3.4465   -2.4902  -26.2225 O   0  0  0  0  0  0  0  0  0  0  0  0
   -2.2688   -1.0120  -27.1859 C   0  0  0  0  0  0  0  0  0  0  0  0
   -1.5477   -0.4548  -28.3773 C   0  0  0  0  0  0  0  0  0  0  0  0
   -0.9607   -1.6066  -27.6164 C   0  0  0  0  0  0  0  0  0  0  0  0
  1  2  1  0  0  0
  2  3  1  0  0  0
  3  4  2  0  0  0
  3  5  1  0  0  0
  5 12  1  0  0  0
 12 13  2  0  0  0
 13 14  1  0  0  0
 14 15  2  0  0  0
 15 16  1  0  0  0
 16 17  2  0  0  0
 17 18  1  0  0  0
 18 19  2  0  0  0
 19 20  1  0  0  0
 20 21  2  0  0  0
  5  6  1  0  0  0
  6  7  2  0  0  0
  6  8  1  0  0  0
  8  9  1  0  0  0
  9 10  1  0  0  0
 10 22  1  0  0  0
 22 23  2  0  0  0
 22 24  2  0  0  0
 22 25  1  0  0  0
 25 26  1  0  0  0
 26 27  1  0  0  0
 10 11  1  0  0  0
  8  2  1  0  0  0
 27 25  1  0  0  0
 21 12  1  0  0  0
 11  8  1  0  0  0
 21 16  1  0  0  0
M  END
> <minimizedAffinity>
-5.96008

> <CNNscore>
0.5140432119

> <CNNaffinity>
5.1440138817

> <CNN_VS>
2.6442453861

> <CNNaffinity_variance>
0.0519278757

$$$$



 27 31  0  0  0  0  0  0  0  0999 V2000
   -5.3084    0.3857  -17.7198 C   0  0  0  0  0  0  0  0  0  0  0  0
   -5.5040   -0.0870  -19.1298 N   0  0  0  0  0  0  0  0  0  0  0  0
   -6.6361   -0.9370  -19.6257 C   0  0  0  0  0  0  0  0  0  0  0  0
   -7.7713   -1.4635  -18.7986 O   0  0  0  0  0  0  0  0  0  0  0  0
   -6.4337   -1.1681  -21.0939 N   0  0  0  0  0  0  0  0  0  0  0  0
   -5.1765   -0.4609  -21.5054 C   0  0  0  0  0  0  0  0  0  0  0  0
   -4.5958   -0.4277  -22.8881 O   0  0  0  0  0  0  0  0  0  0  0  0
   -4.6019    0.2072  -20.2916 C   0  0  0  0  0  0  0  0  0  0  0  0
   -3.5706    0.6226  -21.2984 C   0  0  0  0  0  0  0  0  0  0  0  0
   -2.8255    1.3649  -20.2289 N   0  0  0  0  0  0  0  0  0  0  0  0
   -3.8569    0.9494  -19.2220 C   0  0  0  0  0  0  0  0  0  0  0  0
   -7.3309   -1.9662  -21.9928 C   0  0  0  0  0  0  0  0  0  0  0  0
   -6.9589   -3.3696  -22.3698 C   0  0  0  0  0  0  0  0  0  0  0  0
   -7.8561   -4.1677  -23.2686 N   0  0  0  0  0  0  0  0  0  0  0  0
   -9.1254   -3.5625  -23.7906 C   0  0  0  0  0  0  0  0  0  0  0  0
   -9.4976   -2.1591  -23.4136 C   0  0  0  0  0  0  0  0  0  0  0  0
  -10.7669   -1.5538  -23.9356 C   0  0  0  0  0  0  0  0  0  0  0  0
  -11.1390   -0.1505  -23.5586 C   0  0  0  0  0  0  0  0  0  0  0  0
  -10.2418    0.6476  -22.6597 C   0  0  0  0  0  0  0  0  0  0  0  0
   -8.9724    0.0424  -22.1378 C   0  0  0  0  0  0  0  0  0  0  0  0
   -8.6003   -1.3609  -22.5147 C   0  0  0  0  0  0  0  0  0  0  0  0
   -1.5694    2.1836  -20.1844 S   0  0  0  0  0  0  0  0  0  0  0  0
   -2.3564    3.3645  -19.6983 O   0  0  0  0  0  0  0  0  0  0  0  0
   -0.7824    1.0027  -20.6706 O   0  0  0  0  0  0  0  0  0  0  0  0
   -0.3134    3.0023  -20.1399 C   0  0  0  0  0  0  0  0  0  0  0  0
    0.3699    4.3234  -19.9457 C   0  0  0  0  0  0  0  0  0  0  0  0
    1.1789    3.0993  -20.2571 C   0  0  0  0  0  0  0  0  0  0  0  0
  1  2  1  0  0  0
  2  3  1  0  0  0
  3  4  2  0  0  0
  3  5  1  0  0  0
  5 12  1  0  0  0
 12 13  2  0  0  0
 13 14  1  0  0  0
 14 15  2  0  0  0
 15 16  1  0  0  0
 16 17  2  0  0  0
 17 18  1  0  0  0
 18 19  2  0  0  0
 19 20  1  0  0  0
 20 21  2  0  0  0
  5  6  1  0  0  0
  6  7  2  0  0  0
  6  8  1  0  0  0
  8  9  1  0  0  0
  9 10  1  0  0  0
 10 22  1  0  0  0
 22 23  2  0  0  0
 22 24  2  0  0  0
 22 25  1  0  0  0
 25 26  1  0  0  0
 26 27  1  0  0  0
 10 11  1  0  0  0
  8  2  1  0  0  0
 27 25  1  0  0  0
 21 12  1  0  0  0
 11  8  1  0  0  0
 21 16  1  0  0  0
M  END
> <minimizedAffinity>
-7.95805

> <CNNscore>
0.5104798675

> <CNNaffinity>
5.2680592537

> <CNN_VS>
2.6892380714

> <CNNaffinity_variance>
0.0666104034

$$$$



 27 31  0  0  0  0  0  0  0  0999 V2000
   -6.1775   -2.6725  -21.6936 C   0  0  0  0  0  0  0  0  0  0  0  0
   -7.5289   -2.7628  -22.3381 N   0  0  0  0  0  0  0  0  0  0  0  0
   -8.7160   -1.9022  -22.0214 C   0  0  0  0  0  0  0  0  0  0  0  0
   -8.7600   -0.8003  -21.0047 O   0  0  0  0  0  0  0  0  0  0  0  0
   -9.8514   -2.3371  -22.8999 N   0  0  0  0  0  0  0  0  0  0  0  0
   -9.3660   -3.4664  -23.7596 C   0  0  0  0  0  0  0  0  0  0  0  0
  -10.1740   -4.2033  -24.7863 O   0  0  0  0  0  0  0  0  0  0  0  0
   -7.9306   -3.7295  -23.4123 C   0  0  0  0  0  0  0  0  0  0  0  0
   -8.1118   -4.7767  -24.4708 C   0  0  0  0  0  0  0  0  0  0  0  0
   -6.6873   -5.2090  -24.2869 N   0  0  0  0  0  0  0  0  0  0  0  0
   -6.5061   -4.1618  -23.2284 C   0  0  0  0  0  0  0  0  0  0  0  0
  -11.2300   -1.7463  -22.9160 C   0  0  0  0  0  0  0  0  0  0  0  0
  -12.4131   -2.5928  -22.5503 C   0  0  0  0  0  0  0  0  0  0  0  0
  -13.7917   -2.0020  -22.5664 N   0  0  0  0  0  0  0  0  0  0  0  0
  -13.9874   -0.5647  -22.9482 C   0  0  0  0  0  0  0  0  0  0  0  0
  -12.8043    0.2819  -23.3139 C   0  0  0  0  0  0  0  0  0  0  0  0
  -13.0000    1.7192  -23.6957 C   0  0  0  0  0  0  0  0  0  0  0  0
  -11.8169    2.5657  -24.0614 C   0  0  0  0  0  0  0  0  0  0  0  0
  -10.4383    1.9750  -24.0454 C   0  0  0  0  0  0  0  0  0  0  0  0
  -10.2426    0.5376  -23.6636 C   0  0  0  0  0  0  0  0  0  0  0  0
  -11.4256   -0.3089  -23.2979 C   0  0  0  0  0  0  0  0  0  0  0  0
   -5.8080   -6.2552  -24.9053 S   0  0  0  0  0  0  0  0  0  0  0  0
   -5.3245   -5.2537  -25.9120 O   0  0  0  0  0  0  0  0  0  0  0  0
   -6.2913   -7.2567  -23.8987 O   0  0  0  0  0  0  0  0  0  0  0  0
   -4.9286   -7.3012  -25.5238 C   0  0  0  0  0  0  0  0  0  0  0  0
   -3.7859   -8.2669  -25.4163 C   0  0  0  0  0  0  0  0  0  0  0  0
   -4.5483   -8.1474  -26.7025 C   0  0  0  0  0  0  0  0  0  0  0  0
  1  2  1  0  0  0
  2  3  1  0  0  0
  3  4  2  0  0  0
  3  5  1  0  0  0
  5 12  1  0  0  0
 12 13  2  0  0  0
 13 14  1  0  0  0
 14 15  2  0  0  0
 15 16  1  0  0  0
 16 17  2  0  0  0
 17 18  1  0  0  0
 18 19  2  0  0  0
 19 20  1  0  0  0
 20 21  2  0  0  0
  5  6  1  0  0  0
  6  7  2  0  0  0
  6  8  1  0  0  0
  8  9  1  0  0  0
  9 10  1  0  0  0
 10 22  1  0  0  0
 22 23  2  0  0  0
 22 24  2  0  0  0
 22 25  1  0  0  0
 25 26  1  0  0  0
 26 27  1  0  0  0
 10 11  1  0  0  0
  8  2  1  0  0  0
 27 25  1  0  0  0
 21 12  1  0  0  0
 11  8  1  0  0  0
 21 16  1  0  0  0
M  END
> <minimizedAffinity>
-7.01113

> <CNNscore>
0.4832378924

> <CNNaffinity>
5.4724969864

> <CNN_VS>
2.6445178986

> <CNNaffinity_variance>
0.0643359795

$$$$



 27 31  0  0  0  0  0  0  0  0999 V2000
  -12.2189   -3.0798  -23.2484 C   0  0  0  0  0  0  0  0  0  0  0  0
  -11.5676   -1.7293  -23.2020 N   0  0  0  0  0  0  0  0  0  0  0  0
  -12.2720   -0.4075  -23.2835 C   0  0  0  0  0  0  0  0  0  0  0  0
  -13.7514   -0.2041  -23.4257 O   0  0  0  0  0  0  0  0  0  0  0  0
  -11.2374    0.6752  -23.1979 N   0  0  0  0  0  0  0  0  0  0  0  0
   -9.8936    0.0225  -23.0634 C   0  0  0  0  0  0  0  0  0  0  0  0
   -8.5768    0.7314  -22.9469 O   0  0  0  0  0  0  0  0  0  0  0  0
  -10.0976   -1.4636  -23.0660 C   0  0  0  0  0  0  0  0  0  0  0  0
   -8.6046   -1.4319  -22.9251 C   0  0  0  0  0  0  0  0  0  0  0  0
   -8.5748   -2.9315  -22.9054 N   0  0  0  0  0  0  0  0  0  0  0  0
  -10.0679   -2.9631  -23.0463 C   0  0  0  0  0  0  0  0  0  0  0  0
  -11.5005    2.1514  -23.2394 C   0  0  0  0  0  0  0  0  0  0  0  0
  -12.4240    2.7771  -22.2367 C   0  0  0  0  0  0  0  0  0  0  0  0
  -12.6870    4.2533  -22.2782 N   0  0  0  0  0  0  0  0  0  0  0  0
  -12.0266    5.1037  -23.3224 C   0  0  0  0  0  0  0  0  0  0  0  0
  -11.1030    4.4780  -24.3252 C   0  0  0  0  0  0  0  0  0  0  0  0
  -10.4425    5.3284  -25.3694 C   0  0  0  0  0  0  0  0  0  0  0  0
   -9.5190    4.7027  -26.3721 C   0  0  0  0  0  0  0  0  0  0  0  0
   -9.2559    3.2265  -26.3306 C   0  0  0  0  0  0  0  0  0  0  0  0
   -9.9164    2.3761  -25.2864 C   0  0  0  0  0  0  0  0  0  0  0  0
  -10.8399    3.0018  -24.2837 C   0  0  0  0  0  0  0  0  0  0  0  0
   -7.4980   -3.9696  -22.7919 S   0  0  0  0  0  0  0  0  0  0  0  0
   -6.7885   -3.1226  -21.7773 O   0  0  0  0  0  0  0  0  0  0  0  0
   -8.2074   -4.8166  -23.8065 O   0  0  0  0  0  0  0  0  0  0  0  0
   -6.4211   -5.0076  -22.6783 C   0  0  0  0  0  0  0  0  0  0  0  0
   -5.5603   -5.8993  -21.8334 C   0  0  0  0  0  0  0  0  0  0  0  0
   -5.4169   -5.9139  -23.3264 C   0  0  0  0  0  0  0  0  0  0  0  0
  1  2  1  0  0  0
  2  3  1  0  0  0
  3  4  2  0  0  0
  3  5  1  0  0  0
  5 12  1  0  0  0
 12 13  2  0  0  0
 13 14  1  0  0  0
 14 15  2  0  0  0
 15 16  1  0  0  0
 16 17  2  0  0  0
 17 18  1  0  0  0
 18 19  2  0  0  0
 19 20  1  0  0  0
 20 21  2  0  0  0
  5  6  1  0  0  0
  6  7  2  0  0  0
  6  8  1  0  0  0
  8  9  1  0  0  0
  9 10  1  0  0  0
 10 22  1  0  0  0
 22 23  2  0  0  0
 22 24  2  0  0  0
 22 25  1  0  0  0
 25 26  1  0  0  0
 26 27  1  0  0  0
 10 11  1  0  0  0
  8  2  1  0  0  0
 27 25  1  0  0  0
 21 12  1  0  0  0
 11  8  1  0  0  0
 21 16  1  0  0  0
M  END
> <minimizedAffinity>
-6.21521

> <CNNscore>
0.4548756182

> <CNNaffinity>
5.4427809715

> <CNN_VS>
2.4757883549

> <CNNaffinity_variance>
0.0839340091

$$$$



 27 31  0  0  0  0  0  0  0  0999 V2000
   -5.7566   -1.8068  -24.6530 C   0  0  0  0  0  0  0  0  0  0  0  0
   -6.7371   -0.8052  -24.1186 N   0  0  0  0  0  0  0  0  0  0  0  0
   -8.2031   -0.7528  -24.4319 C   0  0  0  0  0  0  0  0  0  0  0  0
   -8.9459   -1.6928  -25.3345 O   0  0  0  0  0  0  0  0  0  0  0  0
   -8.7959    0.4045  -23.6841 N   0  0  0  0  0  0  0  0  0  0  0  0
   -7.6962    1.0674  -22.9087 C   0  0  0  0  0  0  0  0  0  0  0  0
   -7.8431    2.2672  -22.0206 O   0  0  0  0  0  0  0  0  0  0  0  0
   -6.4238    0.3197  -23.1772 C   0  0  0  0  0  0  0  0  0  0  0  0
   -5.8892    1.3650  -22.2437 C   0  0  0  0  0  0  0  0  0  0  0  0
   -4.5164    0.7737  -22.3677 N   0  0  0  0  0  0  0  0  0  0  0  0
   -5.0510   -0.2717  -23.3013 C   0  0  0  0  0  0  0  0  0  0  0  0
  -10.2355    0.8251  -23.7076 C   0  0  0  0  0  0  0  0  0  0  0  0
  -10.6020    2.2228  -24.1101 C   0  0  0  0  0  0  0  0  0  0  0  0
  -12.0416    2.6434  -24.1336 N   0  0  0  0  0  0  0  0  0  0  0  0
  -13.1148    1.6663  -23.7547 C   0  0  0  0  0  0  0  0  0  0  0  0
  -12.7483    0.2685  -23.3522 C   0  0  0  0  0  0  0  0  0  0  0  0
  -13.8214   -0.7086  -22.9733 C   0  0  0  0  0  0  0  0  0  0  0  0
  -13.4549   -2.1063  -22.5708 C   0  0  0  0  0  0  0  0  0  0  0  0
  -12.0152   -2.5269  -22.5473 C   0  0  0  0  0  0  0  0  0  0  0  0
  -10.9421   -1.5498  -22.9262 C   0  0  0  0  0  0  0  0  0  0  0  0
  -11.3086   -0.1521  -23.3287 C   0  0  0  0  0  0  0  0  0  0  0  0
   -3.1675    1.0945  -21.7954 S   0  0  0  0  0  0  0  0  0  0  0  0
   -3.5377    0.3864  -20.5259 O   0  0  0  0  0  0  0  0  0  0  0  0
   -2.7971    1.8027  -23.0648 O   0  0  0  0  0  0  0  0  0  0  0  0
   -1.8186    1.4154  -21.2229 C   0  0  0  0  0  0  0  0  0  0  0  0
   -0.3246    1.4405  -21.3535 C   0  0  0  0  0  0  0  0  0  0  0  0
   -0.9765    1.9460  -20.1007 C   0  0  0  0  0  0  0  0  0  0  0  0
  1  2  1  0  0  0
  2  3  1  0  0  0
  3  4  2  0  0  0
  3  5  1  0  0  0
  5 12  1  0  0  0
 12 13  2  0  0  0
 13 14  1  0  0  0
 14 15  2  0  0  0
 15 16  1  0  0  0
 16 17  2  0  0  0
 17 18  1  0  0  0
 18 19  2  0  0  0
 19 20  1  0  0  0
 20 21  2  0  0  0
  5  6  1  0  0  0
  6  7  2  0  0  0
  6  8  1  0  0  0
  8  9  1  0  0  0
  9 10  1  0  0  0
 10 22  1  0  0  0
 22 23  2  0  0  0
 22 24  2  0  0  0
 22 25  1  0  0  0
 25 26  1  0  0  0
 26 27  1  0  0  0
 10 11  1  0  0  0
  8  2  1  0  0  0
 27 25  1  0  0  0
 21 12  1  0  0  0
 11  8  1  0  0  0
 21 16  1  0  0  0
M  END
> <minimizedAffinity>
-6.27551

> <CNNscore>
0.3960052729

> <CNNaffinity>
5.1904325485

> <CNN_VS>
2.0554387569

> <CNNaffinity_variance>
0.1508795023

$$$$



 27 31  0  0  0  0  0  0  0  0999 V2000
   -5.3429    0.1172  -17.7194 C   0  0  0  0  0  0  0  0  0  0  0  0
   -5.6972   -0.1082  -19.1594 N   0  0  0  0  0  0  0  0  0  0  0  0
   -6.9194   -0.8145  -19.6666 C   0  0  0  0  0  0  0  0  0  0  0  0
   -8.0019   -1.4195  -18.8226 O   0  0  0  0  0  0  0  0  0  0  0  0
   -6.8692   -0.8096  -21.1657 N   0  0  0  0  0  0  0  0  0  0  0  0
   -5.6158   -0.1002  -21.5851 C   0  0  0  0  0  0  0  0  0  0  0  0
   -5.1658    0.1344  -22.9966 O   0  0  0  0  0  0  0  0  0  0  0  0
   -4.8915    0.3333  -20.3452 C   0  0  0  0  0  0  0  0  0  0  0  0
   -3.9357    0.8630  -21.3726 C   0  0  0  0  0  0  0  0  0  0  0  0
   -3.0509    1.3859  -20.2801 N   0  0  0  0  0  0  0  0  0  0  0  0
   -4.0068    0.8561  -19.2525 C   0  0  0  0  0  0  0  0  0  0  0  0
   -7.8925   -1.4089  -22.0842 C   0  0  0  0  0  0  0  0  0  0  0  0
   -9.1231   -0.6310  -22.4454 C   0  0  0  0  0  0  0  0  0  0  0  0
  -10.1465   -1.2303  -23.3639 N   0  0  0  0  0  0  0  0  0  0  0  0
   -9.9393   -2.6074  -23.9211 C   0  0  0  0  0  0  0  0  0  0  0  0
   -8.7087   -3.3854  -23.5599 C   0  0  0  0  0  0  0  0  0  0  0  0
   -8.5015   -4.7625  -24.1171 C   0  0  0  0  0  0  0  0  0  0  0  0
   -7.2709   -5.5404  -23.7558 C   0  0  0  0  0  0  0  0  0  0  0  0
   -6.2475   -4.9411  -22.8373 C   0  0  0  0  0  0  0  0  0  0  0  0
   -6.4547   -3.5640  -22.2801 C   0  0  0  0  0  0  0  0  0  0  0  0
   -7.6853   -2.7861  -22.6414 C   0  0  0  0  0  0  0  0  0  0  0  0
   -1.7494    2.1302  -20.2339 S   0  0  0  0  0  0  0  0  0  0  0  0
   -1.0512    0.9464  -20.8349 O   0  0  0  0  0  0  0  0  0  0  0  0
   -2.4476    3.3139  -19.6328 O   0  0  0  0  0  0  0  0  0  0  0  0
   -0.4479    2.8743  -20.1877 C   0  0  0  0  0  0  0  0  0  0  0  0
    0.3120    4.1509  -19.9805 C   0  0  0  0  0  0  0  0  0  0  0  0
    1.0467    2.8867  -20.3151 C   0  0  0  0  0  0  0  0  0  0  0  0
  1  2  1  0  0  0
  2  3  1  0  0  0
  3  4  2  0  0  0
  3  5  1  0  0  0
  5 12  1  0  0  0
 12 13  2  0  0  0
 13 14  1  0  0  0
 14 15  2  0  0  0
 15 16  1  0  0  0
 16 17  2  0  0  0
 17 18  1  0  0  0
 18 19  2  0  0  0
 19 20  1  0  0  0
 20 21  2  0  0  0
  5  6  1  0  0  0
  6  7  2  0  0  0
  6  8  1  0  0  0
  8  9  1  0  0  0
  9 10  1  0  0  0
 10 22  1  0  0  0
 22 23  2  0  0  0
 22 24  2  0  0  0
 22 25  1  0  0  0
 25 26  1  0  0  0
 26 27  1  0  0  0
 10 11  1  0  0  0
  8  2  1  0  0  0
 27 25  1  0  0  0
 21 12  1  0  0  0
 11  8  1  0  0  0
 21 16  1  0  0  0
M  END
> <minimizedAffinity>
-7.46108

> <CNNscore>
0.3760089874

> <CNNaffinity>
5.2170572281

> <CNN_VS>
1.9616603851

> <CNNaffinity_variance>
0.0261932351

$$$$



 27 31  0  0  0  0  0  0  0  0999 V2000
   -5.6208   -1.8018  -25.0700 C   0  0  0  0  0  0  0  0  0  0  0  0
   -6.7488   -1.2328  -24.2614 N   0  0  0  0  0  0  0  0  0  0  0  0
   -8.2109   -1.4685  -24.4996 C   0  0  0  0  0  0  0  0  0  0  0  0
   -8.8016   -2.3146  -25.5883 O   0  0  0  0  0  0  0  0  0  0  0  0
   -8.9785   -0.7096  -23.4581 N   0  0  0  0  0  0  0  0  0  0  0  0
   -7.9908   -0.0049  -22.5761 C   0  0  0  0  0  0  0  0  0  0  0  0
   -8.3229    0.8696  -21.4035 O   0  0  0  0  0  0  0  0  0  0  0  0
   -6.6128   -0.3282  -23.0726 C   0  0  0  0  0  0  0  0  0  0  0  0
   -6.2449    0.5580  -21.9197 C   0  0  0  0  0  0  0  0  0  0  0  0
   -4.7915    0.3710  -22.2397 N   0  0  0  0  0  0  0  0  0  0  0  0
   -5.1593   -0.5153  -23.3927 C   0  0  0  0  0  0  0  0  0  0  0  0
  -10.4716   -0.6636  -23.3223 C   0  0  0  0  0  0  0  0  0  0  0  0
  -11.2286   -1.9012  -22.9413 C   0  0  0  0  0  0  0  0  0  0  0  0
  -12.7218   -1.8551  -22.8056 N   0  0  0  0  0  0  0  0  0  0  0  0
  -13.4579   -0.5714  -23.0508 C   0  0  0  0  0  0  0  0  0  0  0  0
  -12.7009    0.6663  -23.4318 C   0  0  0  0  0  0  0  0  0  0  0  0
  -13.4371    1.9500  -23.6771 C   0  0  0  0  0  0  0  0  0  0  0  0
  -12.6801    3.1876  -24.0581 C   0  0  0  0  0  0  0  0  0  0  0  0
  -11.1869    3.1415  -24.1938 C   0  0  0  0  0  0  0  0  0  0  0  0
  -10.4508    1.8578  -23.9486 C   0  0  0  0  0  0  0  0  0  0  0  0
  -11.2078    0.6202  -23.5676 C   0  0  0  0  0  0  0  0  0  0  0  0
   -3.5035    0.8654  -21.6508 S   0  0  0  0  0  0  0  0  0  0  0  0
   -3.8044    0.1320  -20.3773 O   0  0  0  0  0  0  0  0  0  0  0  0
   -3.2026    1.5987  -22.9243 O   0  0  0  0  0  0  0  0  0  0  0  0
   -2.2156    1.3597  -21.0618 C   0  0  0  0  0  0  0  0  0  0  0  0
   -1.4778    2.0866  -19.9768 C   0  0  0  0  0  0  0  0  0  0  0  0
   -0.7226    1.4889  -21.1268 C   0  0  0  0  0  0  0  0  0  0  0  0
  1  2  1  0  0  0
  2  3  1  0  0  0
  3  4  2  0  0  0
  3  5  1  0  0  0
  5 12  1  0  0  0
 12 13  2  0  0  0
 13 14  1  0  0  0
 14 15  2  0  0  0
 15 16  1  0  0  0
 16 17  2  0  0  0
 17 18  1  0  0  0
 18 19  2  0  0  0
 19 20  1  0  0  0
 20 21  2  0  0  0
  5  6  1  0  0  0
  6  7  2  0  0  0
  6  8  1  0  0  0
  8  9  1  0  0  0
  9 10  1  0  0  0
 10 22  1  0  0  0
 22 23  2  0  0  0
 22 24  2  0  0  0
 22 25  1  0  0  0
 25 26  1  0  0  0
 26 27  1  0  0  0
 10 11  1  0  0  0
  8  2  1  0  0  0
 27 25  1  0  0  0
 21 12  1  0  0  0
 11  8  1  0  0  0
 21 16  1  0  0  0
M  END
> <minimizedAffinity>
-6.89965

> <CNNscore>
0.3562590182

> <CNNaffinity>
5.0632467270

> <CNN_VS>
1.8038272858

> <CNNaffinity_variance>
0.0711405724

$$$$
