


 30 33  0  0  0  0  0  0  0  0999 V2000
   -7.6917   -3.5747  -23.5739 N   0  0  0  0  0  0  0  0  0  0  0  0
   -7.3783   -2.6713  -22.4182 C   0  0  0  0  0  0  0  0  0  0  0  0
   -8.2702   -1.5038  -22.1155 O   0  0  0  0  0  0  0  0  0  0  0  0
   -5.0160   -7.0769  -24.4821 C   0  0  0  0  0  0  0  0  0  0  0  0
   -4.9942   -5.8668  -25.3682 C   0  0  0  0  0  0  0  0  0  0  0  0
   -5.8861   -4.6994  -25.0655 C   0  0  0  0  0  0  0  0  0  0  0  0
   -6.7998   -4.7421  -23.8766 C   0  0  0  0  0  0  0  0  0  0  0  0
   -6.8216   -5.9522  -22.9905 C   0  0  0  0  0  0  0  0  0  0  0  0
   -5.9297   -7.1196  -23.2933 C   0  0  0  0  0  0  0  0  0  0  0  0
   -2.7117   -8.2600  -24.2798 C   0  0  0  0  0  0  0  0  0  0  0  0
   -4.1241   -8.2444  -24.7849 O   0  0  0  0  0  0  0  0  0  0  0  0
   -8.8970   -3.3106  -24.4269 C   0  0  0  0  0  0  0  0  0  0  0  0
   -9.9844   -2.4053  -23.9290 C   0  0  0  0  0  0  0  0  0  0  0  0
   -9.8824   -0.9237  -24.1405 C   0  0  0  0  0  0  0  0  0  0  0  0
  -10.9698   -0.0184  -23.6426 C   0  0  0  0  0  0  0  0  0  0  0  0
  -12.1592   -0.5946  -22.9331 C   0  0  0  0  0  0  0  0  0  0  0  0
  -12.2612   -2.0761  -22.7216 C   0  0  0  0  0  0  0  0  0  0  0  0
  -13.4505   -2.6523  -22.0121 Cl  0  0  0  0  0  0  0  0  0  0  0  0
  -11.1738   -2.9814  -23.2195 C   0  0  0  0  0  0  0  0  0  0  0  0
   -6.1731   -2.9353  -21.5652 C   0  0  0  0  0  0  0  0  0  0  0  0
   -5.7723   -1.9500  -20.5076 C   0  0  0  0  0  0  0  0  0  0  0  0
   -6.1398   -2.1969  -19.0745 C   0  0  0  0  0  0  0  0  0  0  0  0
   -5.7390   -1.2116  -18.0169 N   0  0  0  0  0  0  0  0  0  0  0  0
   -4.9707    0.0207  -18.3924 C   0  0  0  0  0  0  0  0  0  0  0  0
   -4.6031    0.2677  -19.8256 C   0  0  0  0  0  0  0  0  0  0  0  0
   -3.8347    1.4999  -20.2012 C   0  0  0  0  0  0  0  0  0  0  0  0
   -3.4671    1.7469  -21.6343 C   0  0  0  0  0  0  0  0  0  0  0  0
   -3.8679    0.7615  -22.6919 C   0  0  0  0  0  0  0  0  0  0  0  0
   -4.6363   -0.4708  -22.3163 C   0  0  0  0  0  0  0  0  0  0  0  0
   -5.0038   -0.7177  -20.8832 C   0  0  0  0  0  0  0  0  0  0  0  0
 10 11  1  0  0  0
 11  4  1  0  0  0
  4  5  2  0  0  0
  5  6  1  0  0  0
  6  7  2  0  0  0
  7  1  1  0  0  0
  1 12  1  0  0  0
 12 13  1  0  0  0
 13 14  2  0  0  0
 14 15  1  0  0  0
 15 16  2  0  0  0
 16 17  1  0  0  0
 17 18  1  0  0  0
 17 19  2  0  0  0
  1  2  1  0  0  0
  2  3  2  0  0  0
  2 20  1  0  0  0
 20 21  1  0  0  0
 21 22  2  0  0  0
 22 23  1  0  0  0
 23 24  2  0  0  0
 24 25  1  0  0  0
 25 26  2  0  0  0
 26 27  1  0  0  0
 27 28  2  0  0  0
 28 29  1  0  0  0
 29 30  2  0  0  0
  7  8  1  0  0  0
  8  9  2  0  0  0
  9  4  1  0  0  0
 19 13  1  0  0  0
 30 21  1  0  0  0
 30 25  1  0  0  0
M  END
> <minimizedAffinity>
-7.54515

> <CNNscore>
0.6120650172

> <CNNaffinity>
6.0795545578

> <CNN_VS>
3.7210826874

> <CNNaffinity_variance>
0.4316190779

$$$$



 30 33  0  0  0  0  0  0  0  0999 V2000
   -7.9925   -2.2755  -23.7016 N   0  0  0  0  0  0  0  0  0  0  0  0
   -7.4894   -1.4761  -22.5363 C   0  0  0  0  0  0  0  0  0  0  0  0
   -8.1407   -0.1714  -22.1847 O   0  0  0  0  0  0  0  0  0  0  0  0
   -6.0386   -6.1895  -24.7566 C   0  0  0  0  0  0  0  0  0  0  0  0
   -5.5862   -4.9225  -25.4200 C   0  0  0  0  0  0  0  0  0  0  0  0
   -6.2374   -3.6178  -25.0683 C   0  0  0  0  0  0  0  0  0  0  0  0
   -7.3413   -3.5801  -24.0532 C   0  0  0  0  0  0  0  0  0  0  0  0
   -7.7937   -4.8471  -23.3899 C   0  0  0  0  0  0  0  0  0  0  0  0
   -7.1424   -6.1518  -23.7416 C   0  0  0  0  0  0  0  0  0  0  0  0
   -4.0499   -7.8454  -24.5271 C   0  0  0  0  0  0  0  0  0  0  0  0
   -5.3874   -7.4941  -25.1083 O   0  0  0  0  0  0  0  0  0  0  0  0
   -9.1470   -1.7702  -24.5152 C   0  0  0  0  0  0  0  0  0  0  0  0
  -10.5100   -1.6641  -23.8979 C   0  0  0  0  0  0  0  0  0  0  0  0
  -11.1090   -2.8461  -23.1949 C   0  0  0  0  0  0  0  0  0  0  0  0
  -12.4720   -2.7401  -22.5776 C   0  0  0  0  0  0  0  0  0  0  0  0
  -13.2360   -1.4520  -22.6635 C   0  0  0  0  0  0  0  0  0  0  0  0
  -12.6371   -0.2701  -23.3666 C   0  0  0  0  0  0  0  0  0  0  0  0
  -13.4011    1.0178  -23.4524 Cl  0  0  0  0  0  0  0  0  0  0  0  0
  -11.2741   -0.3762  -23.9838 C   0  0  0  0  0  0  0  0  0  0  0  0
   -6.3349   -1.9814  -21.7227 C   0  0  0  0  0  0  0  0  0  0  0  0
   -5.8588   -1.2030  -20.5322 C   0  0  0  0  0  0  0  0  0  0  0  0
   -6.5023   -1.4116  -19.1934 C   0  0  0  0  0  0  0  0  0  0  0  0
   -6.0261   -0.6332  -18.0029 N   0  0  0  0  0  0  0  0  0  0  0  0
   -4.9064    0.3539  -18.1512 C   0  0  0  0  0  0  0  0  0  0  0  0
   -4.2628    0.5625  -19.4900 C   0  0  0  0  0  0  0  0  0  0  0  0
   -3.1431    1.5496  -19.6382 C   0  0  0  0  0  0  0  0  0  0  0  0
   -2.4996    1.7582  -20.9770 C   0  0  0  0  0  0  0  0  0  0  0  0
   -2.9758    0.9798  -22.1675 C   0  0  0  0  0  0  0  0  0  0  0  0
   -4.0955   -0.0073  -22.0193 C   0  0  0  0  0  0  0  0  0  0  0  0
   -4.7390   -0.2159  -20.6805 C   0  0  0  0  0  0  0  0  0  0  0  0
 10 11  1  0  0  0
 11  4  1  0  0  0
  4  5  2  0  0  0
  5  6  1  0  0  0
  6  7  2  0  0  0
  7  1  1  0  0  0
  1 12  1  0  0  0
 12 13  1  0  0  0
 13 14  2  0  0  0
 14 15  1  0  0  0
 15 16  2  0  0  0
 16 17  1  0  0  0
 17 18  1  0  0  0
 17 19  2  0  0  0
  1  2  1  0  0  0
  2  3  2  0  0  0
  2 20  1  0  0  0
 20 21  1  0  0  0
 21 22  2  0  0  0
 22 23  1  0  0  0
 23 24  2  0  0  0
 24 25  1  0  0  0
 25 26  2  0  0  0
 26 27  1  0  0  0
 27 28  2  0  0  0
 28 29  1  0  0  0
 29 30  2  0  0  0
  7  8  1  0  0  0
  8  9  2  0  0  0
  9  4  1  0  0  0
 19 13  1  0  0  0
 30 21  1  0  0  0
 30 25  1  0  0  0
M  END
> <minimizedAffinity>
-7.60035

> <CNNscore>
0.5977180004

> <CNNaffinity>
6.0173444748

> <CNN_VS>
3.5966751575

> <CNNaffinity_variance>
0.2183721960

$$$$



 30 33  0  0  0  0  0  0  0  0999 V2000
   -8.3951   -1.3924  -23.1919 N   0  0  0  0  0  0  0  0  0  0  0  0
   -8.0249   -0.7053  -21.9109 C   0  0  0  0  0  0  0  0  0  0  0  0
   -8.6551    0.6086  -21.5553 O   0  0  0  0  0  0  0  0  0  0  0  0
   -6.5046   -5.3342  -24.2587 C   0  0  0  0  0  0  0  0  0  0  0  0
   -7.6359   -5.2869  -23.2749 C   0  0  0  0  0  0  0  0  0  0  0  0
   -8.2661   -3.9730  -22.9193 C   0  0  0  0  0  0  0  0  0  0  0  0
   -7.7649   -2.7063  -23.5475 C   0  0  0  0  0  0  0  0  0  0  0  0
   -6.6335   -2.7537  -24.5312 C   0  0  0  0  0  0  0  0  0  0  0  0
   -6.0034   -4.0677  -24.8868 C   0  0  0  0  0  0  0  0  0  0  0  0
   -4.5257   -7.0065  -24.0639 C   0  0  0  0  0  0  0  0  0  0  0  0
   -5.8744   -6.6481  -24.6143 O   0  0  0  0  0  0  0  0  0  0  0  0
   -9.3955   -0.7656  -24.1173 C   0  0  0  0  0  0  0  0  0  0  0  0
  -10.8389   -0.6841  -23.7173 C   0  0  0  0  0  0  0  0  0  0  0  0
  -11.6100    0.5822  -23.9454 C   0  0  0  0  0  0  0  0  0  0  0  0
  -13.0534    0.6637  -23.5455 C   0  0  0  0  0  0  0  0  0  0  0  0
  -13.7257   -0.5211  -22.9174 C   0  0  0  0  0  0  0  0  0  0  0  0
  -12.9546   -1.7873  -22.6894 C   0  0  0  0  0  0  0  0  0  0  0  0
  -13.6269   -2.9720  -22.0614 Cl  0  0  0  0  0  0  0  0  0  0  0  0
  -11.5112   -1.8688  -23.0893 C   0  0  0  0  0  0  0  0  0  0  0  0
   -7.0245   -1.3321  -20.9856 C   0  0  0  0  0  0  0  0  0  0  0  0
   -5.9090   -0.5064  -20.4164 C   0  0  0  0  0  0  0  0  0  0  0  0
   -5.9116   -0.1436  -18.9610 C   0  0  0  0  0  0  0  0  0  0  0  0
   -4.7961    0.6821  -18.3919 N   0  0  0  0  0  0  0  0  0  0  0  0
   -3.6780    1.1449  -19.2782 C   0  0  0  0  0  0  0  0  0  0  0  0
   -3.6754    0.7821  -20.7337 C   0  0  0  0  0  0  0  0  0  0  0  0
   -2.5573    1.2450  -21.6200 C   0  0  0  0  0  0  0  0  0  0  0  0
   -2.5547    0.8821  -23.0754 C   0  0  0  0  0  0  0  0  0  0  0  0
   -3.6702    0.0564  -23.6446 C   0  0  0  0  0  0  0  0  0  0  0  0
   -4.7883   -0.4064  -22.7583 C   0  0  0  0  0  0  0  0  0  0  0  0
   -4.7909   -0.0436  -21.3028 C   0  0  0  0  0  0  0  0  0  0  0  0
 10 11  1  0  0  0
 11  4  1  0  0  0
  4  5  2  0  0  0
  5  6  1  0  0  0
  6  7  2  0  0  0
  7  1  1  0  0  0
  1 12  1  0  0  0
 12 13  1  0  0  0
 13 14  2  0  0  0
 14 15  1  0  0  0
 15 16  2  0  0  0
 16 17  1  0  0  0
 17 18  1  0  0  0
 17 19  2  0  0  0
  1  2  1  0  0  0
  2  3  2  0  0  0
  2 20  1  0  0  0
 20 21  1  0  0  0
 21 22  2  0  0  0
 22 23  1  0  0  0
 23 24  2  0  0  0
 24 25  1  0  0  0
 25 26  2  0  0  0
 26 27  1  0  0  0
 27 28  2  0  0  0
 28 29  1  0  0  0
 29 30  2  0  0  0
  7  8  1  0  0  0
  8  9  2  0  0  0
  9  4  1  0  0  0
 19 13  1  0  0  0
 30 21  1  0  0  0
 30 25  1  0  0  0
M  END
> <minimizedAffinity>
-7.20539

> <CNNscore>
0.5222951174

> <CNNaffinity>
6.0103383064

> <CNN_VS>
3.1391704082

> <CNNaffinity_variance>
0.0850515217

$$$$



 30 33  0  0  0  0  0  0  0  0999 V2000
   -7.4269   -1.5950  -22.2451 N   0  0  0  0  0  0  0  0  0  0  0  0
   -8.1916   -0.3227  -22.4607 C   0  0  0  0  0  0  0  0  0  0  0  0
   -8.1995    0.7367  -21.3988 O   0  0  0  0  0  0  0  0  0  0  0  0
   -7.4031   -4.7733  -25.4307 C   0  0  0  0  0  0  0  0  0  0  0  0
   -6.4687   -3.6041  -25.5307 C   0  0  0  0  0  0  0  0  0  0  0  0
   -6.4767   -2.5447  -24.4689 C   0  0  0  0  0  0  0  0  0  0  0  0
   -7.4190   -2.6544  -23.3069 C   0  0  0  0  0  0  0  0  0  0  0  0
   -8.3533   -3.8236  -23.2069 C   0  0  0  0  0  0  0  0  0  0  0  0
   -8.3453   -4.8831  -24.2688 C   0  0  0  0  0  0  0  0  0  0  0  0
   -8.5175   -6.8248  -26.5706 C   0  0  0  0  0  0  0  0  0  0  0  0
   -7.3951   -5.8327  -26.4925 O   0  0  0  0  0  0  0  0  0  0  0  0
   -6.6701   -1.8079  -20.9675 C   0  0  0  0  0  0  0  0  0  0  0  0
   -5.6314   -0.8151  -20.5368 C   0  0  0  0  0  0  0  0  0  0  0  0
   -5.6009   -0.3294  -19.1179 C   0  0  0  0  0  0  0  0  0  0  0  0
   -4.5622    0.6633  -18.6872 C   0  0  0  0  0  0  0  0  0  0  0  0
   -3.5541    1.1704  -19.6754 C   0  0  0  0  0  0  0  0  0  0  0  0
   -3.5846    0.6848  -21.0942 C   0  0  0  0  0  0  0  0  0  0  0  0
   -2.5765    1.1919  -22.0824 Cl  0  0  0  0  0  0  0  0  0  0  0  0
   -4.6233   -0.3080  -21.5250 C   0  0  0  0  0  0  0  0  0  0  0  0
   -8.9484   -0.1098  -23.7382 C   0  0  0  0  0  0  0  0  0  0  0  0
  -10.3351    0.4610  -23.7022 C   0  0  0  0  0  0  0  0  0  0  0  0
  -10.5612    1.9040  -24.0434 C   0  0  0  0  0  0  0  0  0  0  0  0
  -11.9479    2.4748  -24.0075 N   0  0  0  0  0  0  0  0  0  0  0  0
  -13.1084    1.6026  -23.6303 C   0  0  0  0  0  0  0  0  0  0  0  0
  -12.8823    0.1594  -23.2891 C   0  0  0  0  0  0  0  0  0  0  0  0
  -14.0429   -0.7128  -22.9119 C   0  0  0  0  0  0  0  0  0  0  0  0
  -13.8167   -2.1558  -22.5707 C   0  0  0  0  0  0  0  0  0  0  0  0
  -12.4301   -2.7266  -22.6067 C   0  0  0  0  0  0  0  0  0  0  0  0
  -11.2695   -1.8544  -22.9838 C   0  0  0  0  0  0  0  0  0  0  0  0
  -11.4957   -0.4114  -23.3250 C   0  0  0  0  0  0  0  0  0  0  0  0
 10 11  1  0  0  0
 11  4  1  0  0  0
  4  5  2  0  0  0
  5  6  1  0  0  0
  6  7  2  0  0  0
  7  1  1  0  0  0
  1 12  1  0  0  0
 12 13  1  0  0  0
 13 14  2  0  0  0
 14 15  1  0  0  0
 15 16  2  0  0  0
 16 17  1  0  0  0
 17 18  1  0  0  0
 17 19  2  0  0  0
  1  2  1  0  0  0
  2  3  2  0  0  0
  2 20  1  0  0  0
 20 21  1  0  0  0
 21 22  2  0  0  0
 22 23  1  0  0  0
 23 24  2  0  0  0
 24 25  1  0  0  0
 25 26  2  0  0  0
 26 27  1  0  0  0
 27 28  2  0  0  0
 28 29  1  0  0  0
 29 30  2  0  0  0
  7  8  1  0  0  0
  8  9  2  0  0  0
  9  4  1  0  0  0
 19 13  1  0  0  0
 30 21  1  0  0  0
 30 25  1  0  0  0
M  END
> <minimizedAffinity>
-7.44508

> <CNNscore>
0.4321085215

> <CNNaffinity>
5.9588499069

> <CNN_VS>
2.5748698711

> <CNNaffinity_variance>
0.0707226545

$$$$



 30 33  0  0  0  0  0  0  0  0999 V2000
   -9.7896   -2.0662  -22.9310 N   0  0  0  0  0  0  0  0  0  0  0  0
   -8.4512   -1.8511  -22.2889 C   0  0  0  0  0  0  0  0  0  0  0  0
   -7.4766   -2.9870  -22.1880 O   0  0  0  0  0  0  0  0  0  0  0  0
  -12.7134    1.3411  -23.2339 C   0  0  0  0  0  0  0  0  0  0  0  0
  -13.1944   -0.0737  -23.3640 C   0  0  0  0  0  0  0  0  0  0  0  0
  -12.2198   -1.2095  -23.2631 C   0  0  0  0  0  0  0  0  0  0  0  0
  -10.7642   -0.9304  -23.0320 C   0  0  0  0  0  0  0  0  0  0  0  0
  -10.2832    0.4844  -22.9018 C   0  0  0  0  0  0  0  0  0  0  0  0
  -11.2579    1.6202  -23.0028 C   0  0  0  0  0  0  0  0  0  0  0  0
  -13.4263    3.6075  -24.2852 C   0  0  0  0  0  0  0  0  0  0  0  0
  -13.6880    2.4768  -23.3349 O   0  0  0  0  0  0  0  0  0  0  0  0
  -10.1535   -3.4171  -23.4722 C   0  0  0  0  0  0  0  0  0  0  0  0
   -9.4527   -3.9525  -24.6855 C   0  0  0  0  0  0  0  0  0  0  0  0
   -9.7077   -3.3394  -26.0306 C   0  0  0  0  0  0  0  0  0  0  0  0
   -9.0070   -3.8749  -27.2439 C   0  0  0  0  0  0  0  0  0  0  0  0
   -8.0512   -5.0235  -27.1122 C   0  0  0  0  0  0  0  0  0  0  0  0
   -7.7962   -5.6365  -25.7672 C   0  0  0  0  0  0  0  0  0  0  0  0
   -6.8404   -6.7850  -25.6355 Cl  0  0  0  0  0  0  0  0  0  0  0  0
   -8.4969   -5.1010  -24.5539 C   0  0  0  0  0  0  0  0  0  0  0  0
   -8.0873   -0.5003  -21.7477 C   0  0  0  0  0  0  0  0  0  0  0  0
   -7.0886   -0.3824  -20.6348 C   0  0  0  0  0  0  0  0  0  0  0  0
   -7.2919   -1.1472  -19.3605 C   0  0  0  0  0  0  0  0  0  0  0  0
   -6.2932   -1.0293  -18.2476 N   0  0  0  0  0  0  0  0  0  0  0  0
   -5.0912   -0.1465  -18.4088 C   0  0  0  0  0  0  0  0  0  0  0  0
   -4.8879    0.6183  -19.6831 C   0  0  0  0  0  0  0  0  0  0  0  0
   -3.6860    1.5011  -19.8444 C   0  0  0  0  0  0  0  0  0  0  0  0
   -3.4827    2.2659  -21.1186 C   0  0  0  0  0  0  0  0  0  0  0  0
   -4.4814    2.1479  -22.2316 C   0  0  0  0  0  0  0  0  0  0  0  0
   -5.6834    1.2652  -22.0703 C   0  0  0  0  0  0  0  0  0  0  0  0
   -5.8866    0.5004  -20.7961 C   0  0  0  0  0  0  0  0  0  0  0  0
 10 11  1  0  0  0
 11  4  1  0  0  0
  4  5  2  0  0  0
  5  6  1  0  0  0
  6  7  2  0  0  0
  7  1  1  0  0  0
  1 12  1  0  0  0
 12 13  1  0  0  0
 13 14  2  0  0  0
 14 15  1  0  0  0
 15 16  2  0  0  0
 16 17  1  0  0  0
 17 18  1  0  0  0
 17 19  2  0  0  0
  1  2  1  0  0  0
  2  3  2  0  0  0
  2 20  1  0  0  0
 20 21  1  0  0  0
 21 22  2  0  0  0
 22 23  1  0  0  0
 23 24  2  0  0  0
 24 25  1  0  0  0
 25 26  2  0  0  0
 26 27  1  0  0  0
 27 28  2  0  0  0
 28 29  1  0  0  0
 29 30  2  0  0  0
  7  8  1  0  0  0
  8  9  2  0  0  0
  9  4  1  0  0  0
 19 13  1  0  0  0
 30 21  1  0  0  0
 30 25  1  0  0  0
M  END
> <minimizedAffinity>
-7.99073

> <CNNscore>
0.3673205376

> <CNNaffinity>
5.9488120079

> <CNN_VS>
2.1851208210

> <CNNaffinity_variance>
0.1512724310

$$$$



 30 33  0  0  0  0  0  0  0  0999 V2000
   -9.5492   -1.2517  -23.0097 N   0  0  0  0  0  0  0  0  0  0  0  0
   -8.6092   -0.5755  -22.0562 C   0  0  0  0  0  0  0  0  0  0  0  0
   -8.9531    0.7713  -21.4923 O   0  0  0  0  0  0  0  0  0  0  0  0
   -8.5177   -5.2919  -24.7015 C   0  0  0  0  0  0  0  0  0  0  0  0
   -9.5038   -4.4116  -25.4103 C   0  0  0  0  0  0  0  0  0  0  0  0
   -9.8477   -3.0648  -24.8464 C   0  0  0  0  0  0  0  0  0  0  0  0
   -9.2054   -2.5984  -23.5736 C   0  0  0  0  0  0  0  0  0  0  0  0
   -8.2192   -3.4788  -22.8648 C   0  0  0  0  0  0  0  0  0  0  0  0
   -7.8754   -4.8256  -23.4287 C   0  0  0  0  0  0  0  0  0  0  0  0
   -6.9473   -6.8061  -26.1126 C   0  0  0  0  0  0  0  0  0  0  0  0
   -8.1738   -6.6387  -25.2654 O   0  0  0  0  0  0  0  0  0  0  0  0
  -10.8332   -0.5810  -23.3992 C   0  0  0  0  0  0  0  0  0  0  0  0
  -10.8387    0.8737  -23.7648 C   0  0  0  0  0  0  0  0  0  0  0  0
   -9.7917    1.4182  -24.6908 C   0  0  0  0  0  0  0  0  0  0  0  0
   -9.7971    2.8730  -25.0564 C   0  0  0  0  0  0  0  0  0  0  0  0
  -10.8495    3.7832  -24.4960 C   0  0  0  0  0  0  0  0  0  0  0  0
  -11.8965    3.2387  -23.5701 C   0  0  0  0  0  0  0  0  0  0  0  0
  -12.9488    4.1489  -23.0098 Cl  0  0  0  0  0  0  0  0  0  0  0  0
  -11.8910    1.7839  -23.2045 C   0  0  0  0  0  0  0  0  0  0  0  0
   -7.3252   -1.2461  -21.6667 C   0  0  0  0  0  0  0  0  0  0  0  0
   -6.5223   -0.7175  -20.5152 C   0  0  0  0  0  0  0  0  0  0  0  0
   -6.9836   -0.9545  -19.1077 C   0  0  0  0  0  0  0  0  0  0  0  0
   -6.1807   -0.4259  -17.9563 N   0  0  0  0  0  0  0  0  0  0  0  0
   -4.9165    0.3396  -18.2122 C   0  0  0  0  0  0  0  0  0  0  0  0
   -4.4551    0.5766  -19.6197 C   0  0  0  0  0  0  0  0  0  0  0  0
   -3.1908    1.3422  -19.8757 C   0  0  0  0  0  0  0  0  0  0  0  0
   -2.7295    1.5792  -21.2831 C   0  0  0  0  0  0  0  0  0  0  0  0
   -3.5324    1.0506  -22.4346 C   0  0  0  0  0  0  0  0  0  0  0  0
   -4.7967    0.2850  -22.1787 C   0  0  0  0  0  0  0  0  0  0  0  0
   -5.2580    0.0481  -20.7712 C   0  0  0  0  0  0  0  0  0  0  0  0
 10 11  1  0  0  0
 11  4  1  0  0  0
  4  5  2  0  0  0
  5  6  1  0  0  0
  6  7  2  0  0  0
  7  1  1  0  0  0
  1 12  1  0  0  0
 12 13  1  0  0  0
 13 14  2  0  0  0
 14 15  1  0  0  0
 15 16  2  0  0  0
 16 17  1  0  0  0
 17 18  1  0  0  0
 17 19  2  0  0  0
  1  2  1  0  0  0
  2  3  2  0  0  0
  2 20  1  0  0  0
 20 21  1  0  0  0
 21 22  2  0  0  0
 22 23  1  0  0  0
 23 24  2  0  0  0
 24 25  1  0  0  0
 25 26  2  0  0  0
 26 27  1  0  0  0
 27 28  2  0  0  0
 28 29  1  0  0  0
 29 30  2  0  0  0
  7  8  1  0  0  0
  8  9  2  0  0  0
  9  4  1  0  0  0
 19 13  1  0  0  0
 30 21  1  0  0  0
 30 25  1  0  0  0
M  END
> <minimizedAffinity>
-7.86298

> <CNNscore>
0.3280967474

> <CNNaffinity>
5.7063574791

> <CNN_VS>
1.8722373247

> <CNNaffinity_variance>
0.4351279736

$$$$



 30 33  0  0  0  0  0  0  0  0999 V2000
   -8.4064   -3.0402  -22.8175 N   0  0  0  0  0  0  0  0  0  0  0  0
   -7.1964   -2.4360  -22.1688 C   0  0  0  0  0  0  0  0  0  0  0  0
   -5.9819   -3.2791  -21.9148 O   0  0  0  0  0  0  0  0  0  0  0  0
  -12.0499   -0.5114  -23.5792 C   0  0  0  0  0  0  0  0  0  0  0  0
  -12.1878   -1.8381  -22.8930 C   0  0  0  0  0  0  0  0  0  0  0  0
  -10.9734   -2.6810  -22.6391 C   0  0  0  0  0  0  0  0  0  0  0  0
   -9.6209   -2.1973  -23.0714 C   0  0  0  0  0  0  0  0  0  0  0  0
   -9.4829   -0.8706  -23.7576 C   0  0  0  0  0  0  0  0  0  0  0  0
  -10.6974   -0.0276  -24.0115 C   0  0  0  0  0  0  0  0  0  0  0  0
  -13.2230    1.8068  -23.5643 C   0  0  0  0  0  0  0  0  0  0  0  0
  -13.2643    0.3316  -23.8332 O   0  0  0  0  0  0  0  0  0  0  0  0
   -8.4020   -4.4874  -23.2122 C   0  0  0  0  0  0  0  0  0  0  0  0
   -8.4281   -4.8692  -24.6626 C   0  0  0  0  0  0  0  0  0  0  0  0
   -9.6597   -4.6197  -25.4818 C   0  0  0  0  0  0  0  0  0  0  0  0
   -9.6858   -5.0016  -26.9321 C   0  0  0  0  0  0  0  0  0  0  0  0
   -8.4803   -5.6329  -27.5633 C   0  0  0  0  0  0  0  0  0  0  0  0
   -7.2487   -5.8823  -26.7441 C   0  0  0  0  0  0  0  0  0  0  0  0
   -6.0433   -6.5136  -27.3752 Cl  0  0  0  0  0  0  0  0  0  0  0  0
   -7.2227   -5.5005  -25.2937 C   0  0  0  0  0  0  0  0  0  0  0  0
   -7.2008   -0.9890  -21.7740 C   0  0  0  0  0  0  0  0  0  0  0  0
   -6.4463   -0.5411  -20.5574 C   0  0  0  0  0  0  0  0  0  0  0  0
   -6.9635   -0.8743  -19.1894 C   0  0  0  0  0  0  0  0  0  0  0  0
   -6.2091   -0.4265  -17.9727 N   0  0  0  0  0  0  0  0  0  0  0  0
   -4.9374    0.3545  -18.1240 C   0  0  0  0  0  0  0  0  0  0  0  0
   -4.4202    0.6877  -19.4921 C   0  0  0  0  0  0  0  0  0  0  0  0
   -3.1485    1.4687  -19.6434 C   0  0  0  0  0  0  0  0  0  0  0  0
   -2.6313    1.8019  -21.0114 C   0  0  0  0  0  0  0  0  0  0  0  0
   -3.3858    1.3540  -22.2281 C   0  0  0  0  0  0  0  0  0  0  0  0
   -4.6574    0.5731  -22.0768 C   0  0  0  0  0  0  0  0  0  0  0  0
   -5.1746    0.2399  -20.7088 C   0  0  0  0  0  0  0  0  0  0  0  0
 10 11  1  0  0  0
 11  4  1  0  0  0
  4  5  2  0  0  0
  5  6  1  0  0  0
  6  7  2  0  0  0
  7  1  1  0  0  0
  1 12  1  0  0  0
 12 13  1  0  0  0
 13 14  2  0  0  0
 14 15  1  0  0  0
 15 16  2  0  0  0
 16 17  1  0  0  0
 17 18  1  0  0  0
 17 19  2  0  0  0
  1  2  1  0  0  0
  2  3  2  0  0  0
  2 20  1  0  0  0
 20 21  1  0  0  0
 21 22  2  0  0  0
 22 23  1  0  0  0
 23 24  2  0  0  0
 24 25  1  0  0  0
 25 26  2  0  0  0
 26 27  1  0  0  0
 27 28  2  0  0  0
 28 29  1  0  0  0
 29 30  2  0  0  0
  7  8  1  0  0  0
  8  9  2  0  0  0
  9  4  1  0  0  0
 19 13  1  0  0  0
 30 21  1  0  0  0
 30 25  1  0  0  0
M  END
> <minimizedAffinity>
-7.63421

> <CNNscore>
0.3264885545

> <CNNaffinity>
5.8388857841

> <CNN_VS>
1.9063293934

> <CNNaffinity_variance>
0.1986822039

$$$$



 30 33  0  0  0  0  0  0  0  0999 V2000
  -10.0743   -0.9538  -22.8929 N   0  0  0  0  0  0  0  0  0  0  0  0
  -10.9549   -0.0035  -23.6489 C   0  0  0  0  0  0  0  0  0  0  0  0
  -12.2305   -0.4938  -24.2675 O   0  0  0  0  0  0  0  0  0  0  0  0
   -6.2478    0.5169  -21.0370 C   0  0  0  0  0  0  0  0  0  0  0  0
   -6.7764    1.1673  -22.2811 C   0  0  0  0  0  0  0  0  0  0  0  0
   -8.0519    0.6771  -22.8997 C   0  0  0  0  0  0  0  0  0  0  0  0
   -8.7988   -0.4636  -22.2743 C   0  0  0  0  0  0  0  0  0  0  0  0
   -8.2702   -1.1139  -21.0303 C   0  0  0  0  0  0  0  0  0  0  0  0
   -6.9946   -0.6237  -20.4116 C   0  0  0  0  0  0  0  0  0  0  0  0
   -4.5875    0.5604  -19.0391 C   0  0  0  0  0  0  0  0  0  0  0  0
   -4.9723    1.0071  -20.4184 O   0  0  0  0  0  0  0  0  0  0  0  0
  -10.4693   -2.3944  -22.7556 C   0  0  0  0  0  0  0  0  0  0  0  0
   -9.8999   -3.4205  -23.6899 C   0  0  0  0  0  0  0  0  0  0  0  0
  -10.6796   -3.8502  -24.8972 C   0  0  0  0  0  0  0  0  0  0  0  0
  -10.1102   -4.8763  -25.8315 C   0  0  0  0  0  0  0  0  0  0  0  0
   -8.7612   -5.4727  -25.5585 C   0  0  0  0  0  0  0  0  0  0  0  0
   -7.9816   -5.0430  -24.3512 C   0  0  0  0  0  0  0  0  0  0  0  0
   -6.6326   -5.6393  -24.0783 Cl  0  0  0  0  0  0  0  0  0  0  0  0
   -8.5509   -4.0169  -23.4169 C   0  0  0  0  0  0  0  0  0  0  0  0
  -10.5600    1.4370  -23.7862 C   0  0  0  0  0  0  0  0  0  0  0  0
  -11.5568    2.5191  -23.4938 C   0  0  0  0  0  0  0  0  0  0  0  0
  -12.5480    2.3451  -22.3815 C   0  0  0  0  0  0  0  0  0  0  0  0
  -13.5447    3.4272  -22.0890 N   0  0  0  0  0  0  0  0  0  0  0  0
  -13.5503    4.6833  -22.9089 C   0  0  0  0  0  0  0  0  0  0  0  0
  -12.5591    4.8574  -24.0212 C   0  0  0  0  0  0  0  0  0  0  0  0
  -12.5646    6.1135  -24.8410 C   0  0  0  0  0  0  0  0  0  0  0  0
  -11.5734    6.2874  -25.9533 C   0  0  0  0  0  0  0  0  0  0  0  0
  -10.5767    5.2053  -26.2458 C   0  0  0  0  0  0  0  0  0  0  0  0
  -10.5711    3.9492  -25.4259 C   0  0  0  0  0  0  0  0  0  0  0  0
  -11.5623    3.7753  -24.3137 C   0  0  0  0  0  0  0  0  0  0  0  0
 10 11  1  0  0  0
 11  4  1  0  0  0
  4  5  2  0  0  0
  5  6  1  0  0  0
  6  7  2  0  0  0
  7  1  1  0  0  0
  1 12  1  0  0  0
 12 13  1  0  0  0
 13 14  2  0  0  0
 14 15  1  0  0  0
 15 16  2  0  0  0
 16 17  1  0  0  0
 17 18  1  0  0  0
 17 19  2  0  0  0
  1  2  1  0  0  0
  2  3  2  0  0  0
  2 20  1  0  0  0
 20 21  1  0  0  0
 21 22  2  0  0  0
 22 23  1  0  0  0
 23 24  2  0  0  0
 24 25  1  0  0  0
 25 26  2  0  0  0
 26 27  1  0  0  0
 27 28  2  0  0  0
 28 29  1  0  0  0
 29 30  2  0  0  0
  7  8  1  0  0  0
  8  9  2  0  0  0
  9  4  1  0  0  0
 19 13  1  0  0  0
 30 21  1  0  0  0
 30 25  1  0  0  0
M  END
> <minimizedAffinity>
-7.69617

> <CNNscore>
0.3191156983

> <CNNaffinity>
5.7160863876

> <CNN_VS>
1.8240928650

> <CNNaffinity_variance>
0.2269801199

$$$$



 30 33  0  0  0  0  0  0  0  0999 V2000
   -7.2349   -1.5562  -23.7519 N   0  0  0  0  0  0  0  0  0  0  0  0
   -8.1897   -0.5664  -24.3507 C   0  0  0  0  0  0  0  0  0  0  0  0
   -8.6148   -0.7060  -25.7825 O   0  0  0  0  0  0  0  0  0  0  0  0
   -5.9597   -1.1374  -19.4567 C   0  0  0  0  0  0  0  0  0  0  0  0
   -7.3881   -1.4541  -19.7875 C   0  0  0  0  0  0  0  0  0  0  0  0
   -7.8131   -1.5937  -21.2192 C   0  0  0  0  0  0  0  0  0  0  0  0
   -6.8098   -1.4166  -22.3202 C   0  0  0  0  0  0  0  0  0  0  0  0
   -5.3815   -1.0999  -21.9894 C   0  0  0  0  0  0  0  0  0  0  0  0
   -4.9564   -0.9603  -20.5576 C   0  0  0  0  0  0  0  0  0  0  0  0
   -5.2930    0.3638  -17.4437 C   0  0  0  0  0  0  0  0  0  0  0  0
   -5.5346   -0.9978  -18.0250 O   0  0  0  0  0  0  0  0  0  0  0  0
   -6.7052   -2.6857  -24.5848 C   0  0  0  0  0  0  0  0  0  0  0  0
   -7.0212   -4.1041  -24.2131 C   0  0  0  0  0  0  0  0  0  0  0  0
   -6.4618   -4.6911  -22.9510 C   0  0  0  0  0  0  0  0  0  0  0  0
   -6.7779   -6.1095  -22.5793 C   0  0  0  0  0  0  0  0  0  0  0  0
   -7.6533   -6.9409  -23.4695 C   0  0  0  0  0  0  0  0  0  0  0  0
   -8.2126   -6.3539  -24.7315 C   0  0  0  0  0  0  0  0  0  0  0  0
   -9.0880   -7.1853  -25.6216 Cl  0  0  0  0  0  0  0  0  0  0  0  0
   -7.8966   -4.9355  -25.1032 C   0  0  0  0  0  0  0  0  0  0  0  0
   -8.7194    0.5631  -23.5178 C   0  0  0  0  0  0  0  0  0  0  0  0
  -10.1697    0.9378  -23.5977 C   0  0  0  0  0  0  0  0  0  0  0  0
  -10.5636    2.3338  -23.9796 C   0  0  0  0  0  0  0  0  0  0  0  0
  -12.0138    2.7086  -24.0595 N   0  0  0  0  0  0  0  0  0  0  0  0
  -13.0701    1.6874  -23.7574 C   0  0  0  0  0  0  0  0  0  0  0  0
  -12.6762    0.2913  -23.3754 C   0  0  0  0  0  0  0  0  0  0  0  0
  -13.7325   -0.7299  -23.0734 C   0  0  0  0  0  0  0  0  0  0  0  0
  -13.3386   -2.1259  -22.6914 C   0  0  0  0  0  0  0  0  0  0  0  0
  -11.8883   -2.5007  -22.6116 C   0  0  0  0  0  0  0  0  0  0  0  0
  -10.8320   -1.4795  -22.9136 C   0  0  0  0  0  0  0  0  0  0  0  0
  -11.2260   -0.0835  -23.2956 C   0  0  0  0  0  0  0  0  0  0  0  0
 10 11  1  0  0  0
 11  4  1  0  0  0
  4  5  2  0  0  0
  5  6  1  0  0  0
  6  7  2  0  0  0
  7  1  1  0  0  0
  1 12  1  0  0  0
 12 13  1  0  0  0
 13 14  2  0  0  0
 14 15  1  0  0  0
 15 16  2  0  0  0
 16 17  1  0  0  0
 17 18  1  0  0  0
 17 19  2  0  0  0
  1  2  1  0  0  0
  2  3  2  0  0  0
  2 20  1  0  0  0
 20 21  1  0  0  0
 21 22  2  0  0  0
 22 23  1  0  0  0
 23 24  2  0  0  0
 24 25  1  0  0  0
 25 26  2  0  0  0
 26 27  1  0  0  0
 27 28  2  0  0  0
 28 29  1  0  0  0
 29 30  2  0  0  0
  7  8  1  0  0  0
  8  9  2  0  0  0
  9  4  1  0  0  0
 19 13  1  0  0  0
 30 21  1  0  0  0
 30 25  1  0  0  0
M  END
> <minimizedAffinity>
-7.62415

> <CNNscore>
0.2987772822

> <CNNaffinity>
5.9236230850

> <CNN_VS>
1.7698440552

> <CNNaffinity_variance>
0.2948524058

$$$$
