


 22 25  0  0  0  0  0  0  0  0999 V2000
   -7.7529   -1.3249  -22.3142 O   0  0  0  0  0  0  0  0  0  0  0  0
   -7.0098   -2.6278  -22.2948 C   0  0  0  0  0  0  0  0  0  0  0  0
   -7.4710   -3.7670  -23.1547 N   0  0  0  0  0  0  0  0  0  0  0  0
   -6.7280   -5.0699  -23.1354 C   0  0  0  0  0  0  0  0  0  0  0  0
   -7.1892   -6.2091  -23.9953 C   0  0  0  0  0  0  0  0  0  0  0  0
   -8.3934   -6.0455  -24.8746 C   0  0  0  0  0  0  0  0  0  0  0  0
   -9.0782   -6.9838  -25.8235 S   0  0  0  0  0  0  0  0  0  0  0  0
  -10.2446   -6.2608  -26.4294 C   0  0  0  0  0  0  0  0  0  0  0  0
  -10.2805   -4.8757  -25.8548 C   0  0  0  0  0  0  0  0  0  0  0  0
   -9.1365   -4.7426  -24.8939 C   0  0  0  0  0  0  0  0  0  0  0  0
   -8.6753   -3.6034  -24.0340 C   0  0  0  0  0  0  0  0  0  0  0  0
   -5.8056   -2.7914  -21.4156 C   0  0  0  0  0  0  0  0  0  0  0  0
   -5.5092   -1.7751  -20.3529 C   0  0  0  0  0  0  0  0  0  0  0  0
   -5.9715   -2.0058  -18.9447 C   0  0  0  0  0  0  0  0  0  0  0  0
   -5.6751   -0.9895  -17.8821 N   0  0  0  0  0  0  0  0  0  0  0  0
   -4.9164    0.2575  -18.2276 C   0  0  0  0  0  0  0  0  0  0  0  0
   -4.4540    0.4882  -19.6358 C   0  0  0  0  0  0  0  0  0  0  0  0
   -3.6953    1.7351  -19.9813 C   0  0  0  0  0  0  0  0  0  0  0  0
   -3.2330    1.9657  -21.3895 C   0  0  0  0  0  0  0  0  0  0  0  0
   -3.5294    0.9495  -22.4522 C   0  0  0  0  0  0  0  0  0  0  0  0
   -4.2881   -0.2975  -22.1067 C   0  0  0  0  0  0  0  0  0  0  0  0
   -4.7504   -0.5281  -20.6985 C   0  0  0  0  0  0  0  0  0  0  0  0
  1  2  2  0  0  0
  2 12  1  0  0  0
 12 13  1  0  0  0
 13 14  2  0  0  0
 14 15  1  0  0  0
 15 16  2  0  0  0
 16 17  1  0  0  0
 17 18  2  0  0  0
 18 19  1  0  0  0
 19 20  2  0  0  0
 20 21  1  0  0  0
 21 22  2  0  0  0
  2  3  1  0  0  0
  3  4  1  0  0  0
  4  5  1  0  0  0
  5  6  1  0  0  0
  6  7  1  0  0  0
  7  8  1  0  0  0
  8  9  2  0  0  0
  9 10  1  0  0  0
 10 11  1  0  0  0
 22 13  1  0  0  0
 11  3  1  0  0  0
 22 17  1  0  0  0
 10  6  2  0  0  0
M  END
> <minimizedAffinity>
-7.44788

> <CNNscore>
0.6987414360

> <CNNaffinity>
5.0919427872

> <CNN_VS>
3.5579514503

> <CNNaffinity_variance>
0.3246521354

$$$$



 22 25  0  0  0  0  0  0  0  0999 V2000
   -5.7791   -3.6150  -21.4166 O   0  0  0  0  0  0  0  0  0  0  0  0
   -6.8091   -2.8025  -22.1440 C   0  0  0  0  0  0  0  0  0  0  0  0
   -7.6721   -3.4467  -23.1883 N   0  0  0  0  0  0  0  0  0  0  0  0
   -8.7020   -2.6343  -23.9157 C   0  0  0  0  0  0  0  0  0  0  0  0
   -9.5649   -3.2785  -24.9599 C   0  0  0  0  0  0  0  0  0  0  0  0
   -9.3979   -4.7350  -25.2767 C   0  0  0  0  0  0  0  0  0  0  0  0
  -10.0983   -5.6375  -26.2488 S   0  0  0  0  0  0  0  0  0  0  0  0
   -9.5012   -7.0078  -26.1222 C   0  0  0  0  0  0  0  0  0  0  0  0
   -8.4318   -6.9521  -25.0718 C   0  0  0  0  0  0  0  0  0  0  0  0
   -8.3679   -5.5476  -24.5493 C   0  0  0  0  0  0  0  0  0  0  0  0
   -7.5050   -4.9034  -23.5051 C   0  0  0  0  0  0  0  0  0  0  0  0
   -6.9761   -1.3460  -21.8272 C   0  0  0  0  0  0  0  0  0  0  0  0
   -6.3379   -0.7675  -20.5992 C   0  0  0  0  0  0  0  0  0  0  0  0
   -6.9573   -0.9979  -19.2527 C   0  0  0  0  0  0  0  0  0  0  0  0
   -6.3190   -0.4195  -18.0246 N   0  0  0  0  0  0  0  0  0  0  0  0
   -5.0614    0.3893  -18.1431 C   0  0  0  0  0  0  0  0  0  0  0  0
   -4.4419    0.6197  -19.4897 C   0  0  0  0  0  0  0  0  0  0  0  0
   -3.1842    1.4285  -19.6082 C   0  0  0  0  0  0  0  0  0  0  0  0
   -2.5648    1.6589  -20.9548 C   0  0  0  0  0  0  0  0  0  0  0  0
   -3.2031    1.0805  -22.1828 C   0  0  0  0  0  0  0  0  0  0  0  0
   -4.4607    0.2717  -22.0643 C   0  0  0  0  0  0  0  0  0  0  0  0
   -5.0801    0.0413  -20.7178 C   0  0  0  0  0  0  0  0  0  0  0  0
  1  2  2  0  0  0
  2 12  1  0  0  0
 12 13  1  0  0  0
 13 14  2  0  0  0
 14 15  1  0  0  0
 15 16  2  0  0  0
 16 17  1  0  0  0
 17 18  2  0  0  0
 18 19  1  0  0  0
 19 20  2  0  0  0
 20 21  1  0  0  0
 21 22  2  0  0  0
  2  3  1  0  0  0
  3  4  1  0  0  0
  4  5  1  0  0  0
  5  6  1  0  0  0
  6  7  1  0  0  0
  7  8  1  0  0  0
  8  9  2  0  0  0
  9 10  1  0  0  0
 10 11  1  0  0  0
 22 13  1  0  0  0
 11  3  1  0  0  0
 22 17  1  0  0  0
 10  6  2  0  0  0
M  END
> <minimizedAffinity>
-7.21985

> <CNNscore>
0.6245494485

> <CNNaffinity>
5.1400604248

> <CNN_VS>
3.2102220058

> <CNNaffinity_variance>
0.1795187145

$$$$



 22 25  0  0  0  0  0  0  0  0999 V2000
   -8.7137   -1.0471  -21.4118 O   0  0  0  0  0  0  0  0  0  0  0  0
   -8.1646   -0.0974  -22.4349 C   0  0  0  0  0  0  0  0  0  0  0  0
   -6.8706    0.6163  -22.1776 N   0  0  0  0  0  0  0  0  0  0  0  0
   -6.3216    1.5660  -23.2006 C   0  0  0  0  0  0  0  0  0  0  0  0
   -5.0276    2.2796  -22.9432 C   0  0  0  0  0  0  0  0  0  0  0  0
   -4.2826    2.0436  -21.6629 C   0  0  0  0  0  0  0  0  0  0  0  0
   -2.9934    2.5993  -21.1346 S   0  0  0  0  0  0  0  0  0  0  0  0
   -2.7457    1.9931  -19.7851 C   0  0  0  0  0  0  0  0  0  0  0  0
   -3.8818    1.0627  -19.4793 C   0  0  0  0  0  0  0  0  0  0  0  0
   -4.8317    1.0939  -20.6398 C   0  0  0  0  0  0  0  0  0  0  0  0
   -6.1257    0.3802  -20.8971 C   0  0  0  0  0  0  0  0  0  0  0  0
   -8.9096    0.1386  -23.7153 C   0  0  0  0  0  0  0  0  0  0  0  0
  -10.3179    0.6538  -23.6796 C   0  0  0  0  0  0  0  0  0  0  0  0
  -10.5968    2.0959  -23.9840 C   0  0  0  0  0  0  0  0  0  0  0  0
  -12.0051    2.6111  -23.9483 N   0  0  0  0  0  0  0  0  0  0  0  0
  -13.1344    1.6843  -23.6083 C   0  0  0  0  0  0  0  0  0  0  0  0
  -12.8555    0.2422  -23.3038 C   0  0  0  0  0  0  0  0  0  0  0  0
  -13.9848   -0.6846  -22.9638 C   0  0  0  0  0  0  0  0  0  0  0  0
  -13.7058   -2.1266  -22.6594 C   0  0  0  0  0  0  0  0  0  0  0  0
  -12.2975   -2.6418  -22.6951 C   0  0  0  0  0  0  0  0  0  0  0  0
  -11.1682   -1.7151  -23.0351 C   0  0  0  0  0  0  0  0  0  0  0  0
  -11.4472   -0.2730  -23.3395 C   0  0  0  0  0  0  0  0  0  0  0  0
  1  2  2  0  0  0
  2 12  1  0  0  0
 12 13  1  0  0  0
 13 14  2  0  0  0
 14 15  1  0  0  0
 15 16  2  0  0  0
 16 17  1  0  0  0
 17 18  2  0  0  0
 18 19  1  0  0  0
 19 20  2  0  0  0
 20 21  1  0  0  0
 21 22  2  0  0  0
  2  3  1  0  0  0
  3  4  1  0  0  0
  4  5  1  0  0  0
  5  6  1  0  0  0
  6  7  1  0  0  0
  7  8  1  0  0  0
  8  9  2  0  0  0
  9 10  1  0  0  0
 10 11  1  0  0  0
 22 13  1  0  0  0
 11  3  1  0  0  0
 22 17  1  0  0  0
 10  6  2  0  0  0
M  END
> <minimizedAffinity>
-6.33988

> <CNNscore>
0.5153689981

> <CNNaffinity>
4.6313986778

> <CNN_VS>
2.3868792057

> <CNNaffinity_variance>
0.1612803638

$$$$



 22 25  0  0  0  0  0  0  0  0999 V2000
   -9.5846   -1.4196  -23.2713 O   0  0  0  0  0  0  0  0  0  0  0  0
   -8.2382   -1.4302  -22.6101 C   0  0  0  0  0  0  0  0  0  0  0  0
   -7.4866   -2.7196  -22.4596 N   0  0  0  0  0  0  0  0  0  0  0  0
   -6.1403   -2.7302  -21.7985 C   0  0  0  0  0  0  0  0  0  0  0  0
   -5.3888   -4.0196  -21.6480 C   0  0  0  0  0  0  0  0  0  0  0  0
   -5.9836   -5.2984  -22.1587 C   0  0  0  0  0  0  0  0  0  0  0  0
   -5.4816   -6.7119  -22.1522 S   0  0  0  0  0  0  0  0  0  0  0  0
   -6.5177   -7.5748  -22.8094 C   0  0  0  0  0  0  0  0  0  0  0  0
   -7.6601   -6.6947  -23.2220 C   0  0  0  0  0  0  0  0  0  0  0  0
   -7.3300   -5.2878  -22.8199 C   0  0  0  0  0  0  0  0  0  0  0  0
   -8.0816   -3.9984  -22.9704 C   0  0  0  0  0  0  0  0  0  0  0  0
   -7.6433   -0.1514  -22.0994 C   0  0  0  0  0  0  0  0  0  0  0  0
   -6.8499   -0.1491  -20.8264 C   0  0  0  0  0  0  0  0  0  0  0  0
   -7.3561   -0.8923  -19.6258 C   0  0  0  0  0  0  0  0  0  0  0  0
   -6.5627   -0.8900  -18.3528 N   0  0  0  0  0  0  0  0  0  0  0  0
   -5.2631   -0.1445  -18.2804 C   0  0  0  0  0  0  0  0  0  0  0  0
   -4.7569    0.5987  -19.4810 C   0  0  0  0  0  0  0  0  0  0  0  0
   -3.4573    1.3442  -19.4086 C   0  0  0  0  0  0  0  0  0  0  0  0
   -2.9511    2.0874  -20.6092 C   0  0  0  0  0  0  0  0  0  0  0  0
   -3.7445    2.0851  -21.8822 C   0  0  0  0  0  0  0  0  0  0  0  0
   -5.0441    1.3396  -21.9546 C   0  0  0  0  0  0  0  0  0  0  0  0
   -5.5503    0.5964  -20.7540 C   0  0  0  0  0  0  0  0  0  0  0  0
  1  2  2  0  0  0
  2 12  1  0  0  0
 12 13  1  0  0  0
 13 14  2  0  0  0
 14 15  1  0  0  0
 15 16  2  0  0  0
 16 17  1  0  0  0
 17 18  2  0  0  0
 18 19  1  0  0  0
 19 20  2  0  0  0
 20 21  1  0  0  0
 21 22  2  0  0  0
  2  3  1  0  0  0
  3  4  1  0  0  0
  4  5  1  0  0  0
  5  6  1  0  0  0
  6  7  1  0  0  0
  7  8  1  0  0  0
  8  9  2  0  0  0
  9 10  1  0  0  0
 10 11  1  0  0  0
 22 13  1  0  0  0
 11  3  1  0  0  0
 22 17  1  0  0  0
 10  6  2  0  0  0
M  END
> <minimizedAffinity>
-6.68355

> <CNNscore>
0.5049776435

> <CNNaffinity>
5.2210364342

> <CNN_VS>
2.6365065575

> <CNNaffinity_variance>
0.2632087767

$$$$



 22 25  0  0  0  0  0  0  0  0999 V2000
   -9.0455   -2.0989  -22.0757 O   0  0  0  0  0  0  0  0  0  0  0  0
   -7.8495   -2.3034  -22.9576 C   0  0  0  0  0  0  0  0  0  0  0  0
   -7.9396   -3.2175  -24.1435 N   0  0  0  0  0  0  0  0  0  0  0  0
   -6.7436   -3.4221  -25.0254 C   0  0  0  0  0  0  0  0  0  0  0  0
   -6.8337   -4.3362  -26.2113 C   0  0  0  0  0  0  0  0  0  0  0  0
   -8.1198   -5.0458  -26.5152 C   0  0  0  0  0  0  0  0  0  0  0  0
   -8.5059   -6.0005  -27.6058 S   0  0  0  0  0  0  0  0  0  0  0  0
   -9.9406   -6.3861  -27.3979 C   0  0  0  0  0  0  0  0  0  0  0  0
  -10.4411   -5.6696  -26.1789 C   0  0  0  0  0  0  0  0  0  0  0  0
   -9.3159   -4.8412  -25.6333 C   0  0  0  0  0  0  0  0  0  0  0  0
   -9.2258   -3.9271  -24.4474 C   0  0  0  0  0  0  0  0  0  0  0  0
   -6.5634   -1.5939  -22.6537 C   0  0  0  0  0  0  0  0  0  0  0  0
   -6.3088   -1.0605  -21.2750 C   0  0  0  0  0  0  0  0  0  0  0  0
   -7.2566   -1.3846  -20.1585 C   0  0  0  0  0  0  0  0  0  0  0  0
   -7.0020   -0.8512  -18.7799 N   0  0  0  0  0  0  0  0  0  0  0  0
   -5.7995    0.0063  -18.5177 C   0  0  0  0  0  0  0  0  0  0  0  0
   -4.8517    0.3305  -19.6342 C   0  0  0  0  0  0  0  0  0  0  0  0
   -3.6493    1.1880  -19.3720 C   0  0  0  0  0  0  0  0  0  0  0  0
   -2.7015    1.5122  -20.4885 C   0  0  0  0  0  0  0  0  0  0  0  0
   -2.9561    0.9788  -21.8672 C   0  0  0  0  0  0  0  0  0  0  0  0
   -4.1585    0.1213  -22.1293 C   0  0  0  0  0  0  0  0  0  0  0  0
   -5.1063   -0.2029  -21.0129 C   0  0  0  0  0  0  0  0  0  0  0  0
  1  2  2  0  0  0
  2 12  1  0  0  0
 12 13  1  0  0  0
 13 14  2  0  0  0
 14 15  1  0  0  0
 15 16  2  0  0  0
 16 17  1  0  0  0
 17 18  2  0  0  0
 18 19  1  0  0  0
 19 20  2  0  0  0
 20 21  1  0  0  0
 21 22  2  0  0  0
  2  3  1  0  0  0
  3  4  1  0  0  0
  4  5  1  0  0  0
  5  6  1  0  0  0
  6  7  1  0  0  0
  7  8  1  0  0  0
  8  9  2  0  0  0
  9 10  1  0  0  0
 10 11  1  0  0  0
 22 13  1  0  0  0
 11  3  1  0  0  0
 22 17  1  0  0  0
 10  6  2  0  0  0
M  END
> <minimizedAffinity>
-6.56486

> <CNNscore>
0.4352395535

> <CNNaffinity>
4.9002270699

> <CNN_VS>
2.1327726841

> <CNNaffinity_variance>
0.0798186138

$$$$



 22 25  0  0  0  0  0  0  0  0999 V2000
   -8.2089   -0.7702  -20.4082 O   0  0  0  0  0  0  0  0  0  0  0  0
   -7.4987   -0.7774  -21.7295 C   0  0  0  0  0  0  0  0  0  0  0  0
   -6.1041   -0.2351  -21.8343 N   0  0  0  0  0  0  0  0  0  0  0  0
   -5.3939   -0.2423  -23.1554 C   0  0  0  0  0  0  0  0  0  0  0  0
   -3.9993    0.3000  -23.2602 C   0  0  0  0  0  0  0  0  0  0  0  0
   -3.3150    0.8496  -22.0439 C   0  0  0  0  0  0  0  0  0  0  0  0
   -1.9540    1.4469  -21.8418 S   0  0  0  0  0  0  0  0  0  0  0  0
   -1.8230    1.8233  -20.3957 C   0  0  0  0  0  0  0  0  0  0  0  0
   -3.1031    1.4586  -19.7040 C   0  0  0  0  0  0  0  0  0  0  0  0
   -4.0252    0.8569  -20.7226 C   0  0  0  0  0  0  0  0  0  0  0  0
   -5.4198    0.3145  -20.6178 C   0  0  0  0  0  0  0  0  0  0  0  0
   -8.1831   -1.3270  -22.9458 C   0  0  0  0  0  0  0  0  0  0  0  0
   -9.6754   -1.4780  -22.9629 C   0  0  0  0  0  0  0  0  0  0  0  0
  -10.2959   -2.8227  -22.7250 C   0  0  0  0  0  0  0  0  0  0  0  0
  -11.7882   -2.9737  -22.7420 N   0  0  0  0  0  0  0  0  0  0  0  0
  -12.6600   -1.7799  -22.9970 C   0  0  0  0  0  0  0  0  0  0  0  0
  -12.0394   -0.4351  -23.2349 C   0  0  0  0  0  0  0  0  0  0  0  0
  -12.9112    0.7586  -23.4898 C   0  0  0  0  0  0  0  0  0  0  0  0
  -12.2907    2.1033  -23.7277 C   0  0  0  0  0  0  0  0  0  0  0  0
  -10.7984    2.2543  -23.7107 C   0  0  0  0  0  0  0  0  0  0  0  0
   -9.9266    1.0606  -23.4557 C   0  0  0  0  0  0  0  0  0  0  0  0
  -10.5472   -0.2841  -23.2178 C   0  0  0  0  0  0  0  0  0  0  0  0
  1  2  2  0  0  0
  2 12  1  0  0  0
 12 13  1  0  0  0
 13 14  2  0  0  0
 14 15  1  0  0  0
 15 16  2  0  0  0
 16 17  1  0  0  0
 17 18  2  0  0  0
 18 19  1  0  0  0
 19 20  2  0  0  0
 20 21  1  0  0  0
 21 22  2  0  0  0
  2  3  1  0  0  0
  3  4  1  0  0  0
  4  5  1  0  0  0
  5  6  1  0  0  0
  6  7  1  0  0  0
  7  8  1  0  0  0
  8  9  2  0  0  0
  9 10  1  0  0  0
 10 11  1  0  0  0
 22 13  1  0  0  0
 11  3  1  0  0  0
 22 17  1  0  0  0
 10  6  2  0  0  0
M  END
> <minimizedAffinity>
-6.41415

> <CNNscore>
0.4347031713

> <CNNaffinity>
4.7318735123

> <CNN_VS>
2.0569603443

> <CNNaffinity_variance>
0.1783774793

$$$$



 22 25  0  0  0  0  0  0  0  0999 V2000
   -8.2769   -3.6509  -22.5899 O   0  0  0  0  0  0  0  0  0  0  0  0
   -7.8298   -2.2210  -22.5156 C   0  0  0  0  0  0  0  0  0  0  0  0
   -8.8189   -1.1139  -22.7302 N   0  0  0  0  0  0  0  0  0  0  0  0
   -8.3719    0.3160  -22.6559 C   0  0  0  0  0  0  0  0  0  0  0  0
   -9.3610    1.4231  -22.8704 C   0  0  0  0  0  0  0  0  0  0  0  0
  -10.7971    1.1003  -23.1592 C   0  0  0  0  0  0  0  0  0  0  0  0
  -11.9906    1.9728  -23.4126 S   0  0  0  0  0  0  0  0  0  0  0  0
  -13.1753    1.0821  -23.6435 C   0  0  0  0  0  0  0  0  0  0  0  0
  -12.7139   -0.3408  -23.5328 C   0  0  0  0  0  0  0  0  0  0  0  0
  -11.2441   -0.3296  -23.2335 C   0  0  0  0  0  0  0  0  0  0  0  0
  -10.2551   -1.4367  -23.0190 C   0  0  0  0  0  0  0  0  0  0  0  0
   -6.3937   -1.8982  -22.2268 C   0  0  0  0  0  0  0  0  0  0  0  0
   -6.0210   -1.2218  -20.9409 C   0  0  0  0  0  0  0  0  0  0  0  0
   -6.8035   -1.5013  -19.6922 C   0  0  0  0  0  0  0  0  0  0  0  0
   -6.4308   -0.8249  -18.4063 N   0  0  0  0  0  0  0  0  0  0  0  0
   -5.2755    0.1311  -18.3692 C   0  0  0  0  0  0  0  0  0  0  0  0
   -4.4929    0.4107  -19.6180 C   0  0  0  0  0  0  0  0  0  0  0  0
   -3.3377    1.3667  -19.5809 C   0  0  0  0  0  0  0  0  0  0  0  0
   -2.5551    1.6462  -20.8296 C   0  0  0  0  0  0  0  0  0  0  0  0
   -2.9279    0.9698  -22.1155 C   0  0  0  0  0  0  0  0  0  0  0  0
   -4.0832    0.0138  -22.1526 C   0  0  0  0  0  0  0  0  0  0  0  0
   -4.8657   -0.2657  -20.9039 C   0  0  0  0  0  0  0  0  0  0  0  0
  1  2  2  0  0  0
  2 12  1  0  0  0
 12 13  1  0  0  0
 13 14  2  0  0  0
 14 15  1  0  0  0
 15 16  2  0  0  0
 16 17  1  0  0  0
 17 18  2  0  0  0
 18 19  1  0  0  0
 19 20  2  0  0  0
 20 21  1  0  0  0
 21 22  2  0  0  0
  2  3  1  0  0  0
  3  4  1  0  0  0
  4  5  1  0  0  0
  5  6  1  0  0  0
  6  7  1  0  0  0
  7  8  1  0  0  0
  8  9  2  0  0  0
  9 10  1  0  0  0
 10 11  1  0  0  0
 22 13  1  0  0  0
 11  3  1  0  0  0
 22 17  1  0  0  0
 10  6  2  0  0  0
M  END
> <minimizedAffinity>
-7.21543

> <CNNscore>
0.4073249996

> <CNNaffinity>
5.0087404251

> <CNN_VS>
2.0401852131

> <CNNaffinity_variance>
0.2525205612

$$$$



 22 25  0  0  0  0  0  0  0  0999 V2000
   -8.2994   -0.5799  -20.9640 O   0  0  0  0  0  0  0  0  0  0  0  0
   -7.3612   -1.7200  -21.2289 C   0  0  0  0  0  0  0  0  0  0  0  0
   -7.6962   -2.7387  -22.2778 N   0  0  0  0  0  0  0  0  0  0  0  0
   -6.7581   -3.8787  -22.5427 C   0  0  0  0  0  0  0  0  0  0  0  0
   -7.0930   -4.8974  -23.5916 C   0  0  0  0  0  0  0  0  0  0  0  0
   -8.3660   -4.7760  -24.3756 C   0  0  0  0  0  0  0  0  0  0  0  0
   -8.9590   -5.6210  -25.4638 S   0  0  0  0  0  0  0  0  0  0  0  0
  -10.2637   -5.0032  -25.8715 C   0  0  0  0  0  0  0  0  0  0  0  0
  -10.4770   -3.7764  -25.0352 C   0  0  0  0  0  0  0  0  0  0  0  0
   -9.3042   -3.6360  -24.1107 C   0  0  0  0  0  0  0  0  0  0  0  0
   -8.9693   -2.6173  -23.0618 C   0  0  0  0  0  0  0  0  0  0  0  0
   -6.0882   -1.8414  -20.4450 C   0  0  0  0  0  0  0  0  0  0  0  0
   -5.1876   -0.6521  -20.2884 C   0  0  0  0  0  0  0  0  0  0  0  0
   -5.0033   -0.0234  -18.9391 C   0  0  0  0  0  0  0  0  0  0  0  0
   -4.1026    1.1658  -18.7825 N   0  0  0  0  0  0  0  0  0  0  0  0
   -3.3862    1.7264  -19.9752 C   0  0  0  0  0  0  0  0  0  0  0  0
   -3.5705    1.0976  -21.3246 C   0  0  0  0  0  0  0  0  0  0  0  0
   -2.8542    1.6581  -22.5173 C   0  0  0  0  0  0  0  0  0  0  0  0
   -3.0384    1.0294  -23.8666 C   0  0  0  0  0  0  0  0  0  0  0  0
   -3.9391   -0.1598  -24.0232 C   0  0  0  0  0  0  0  0  0  0  0  0
   -4.6555   -0.7204  -22.8305 C   0  0  0  0  0  0  0  0  0  0  0  0
   -4.4712   -0.0916  -21.4812 C   0  0  0  0  0  0  0  0  0  0  0  0
  1  2  2  0  0  0
  2 12  1  0  0  0
 12 13  1  0  0  0
 13 14  2  0  0  0
 14 15  1  0  0  0
 15 16  2  0  0  0
 16 17  1  0  0  0
 17 18  2  0  0  0
 18 19  1  0  0  0
 19 20  2  0  0  0
 20 21  1  0  0  0
 21 22  2  0  0  0
  2  3  1  0  0  0
  3  4  1  0  0  0
  4  5  1  0  0  0
  5  6  1  0  0  0
  6  7  1  0  0  0
  7  8  1  0  0  0
  8  9  2  0  0  0
  9 10  1  0  0  0
 10 11  1  0  0  0
 22 13  1  0  0  0
 11  3  1  0  0  0
 22 17  1  0  0  0
 10  6  2  0  0  0
M  END
> <minimizedAffinity>
-6.54202

> <CNNscore>
0.4051195085

> <CNNaffinity>
4.8070254326

> <CNN_VS>
1.9474197626

> <CNNaffinity_variance>
0.2019752264

$$$$



 22 25  0  0  0  0  0  0  0  0999 V2000
   -5.3530   -1.3639  -24.5194 O   0  0  0  0  0  0  0  0  0  0  0  0
   -6.2898   -1.1314  -23.3711 C   0  0  0  0  0  0  0  0  0  0  0  0
   -7.3959   -0.1261  -23.4973 N   0  0  0  0  0  0  0  0  0  0  0  0
   -8.3327    0.1064  -22.3492 C   0  0  0  0  0  0  0  0  0  0  0  0
   -9.4388    1.1117  -22.4754 C   0  0  0  0  0  0  0  0  0  0  0  0
   -9.6081    1.8845  -23.7498 C   0  0  0  0  0  0  0  0  0  0  0  0
  -10.5979    2.9326  -24.1641 S   0  0  0  0  0  0  0  0  0  0  0  0
  -10.2729    3.3479  -25.5684 C   0  0  0  0  0  0  0  0  0  0  0  0
   -9.0822    2.5564  -26.0220 C   0  0  0  0  0  0  0  0  0  0  0  0
   -8.6713    1.6519  -24.8981 C   0  0  0  0  0  0  0  0  0  0  0  0
   -7.5652    0.6466  -24.7718 C   0  0  0  0  0  0  0  0  0  0  0  0
   -6.1205   -1.9041  -22.0967 C   0  0  0  0  0  0  0  0  0  0  0  0
   -5.7877   -1.1858  -20.8226 C   0  0  0  0  0  0  0  0  0  0  0  0
   -6.5716   -1.4686  -19.5755 C   0  0  0  0  0  0  0  0  0  0  0  0
   -6.2388   -0.7503  -18.3014 N   0  0  0  0  0  0  0  0  0  0  0  0
   -5.1221    0.2507  -18.2745 C   0  0  0  0  0  0  0  0  0  0  0  0
   -4.3381    0.5336  -19.5217 C   0  0  0  0  0  0  0  0  0  0  0  0
   -3.2214    1.5347  -19.4948 C   0  0  0  0  0  0  0  0  0  0  0  0
   -2.4376    1.8175  -20.7419 C   0  0  0  0  0  0  0  0  0  0  0  0
   -2.7703    1.0992  -22.0160 C   0  0  0  0  0  0  0  0  0  0  0  0
   -3.8870    0.0981  -22.0429 C   0  0  0  0  0  0  0  0  0  0  0  0
   -4.6709   -0.1847  -20.7958 C   0  0  0  0  0  0  0  0  0  0  0  0
  1  2  2  0  0  0
  2 12  1  0  0  0
 12 13  1  0  0  0
 13 14  2  0  0  0
 14 15  1  0  0  0
 15 16  2  0  0  0
 16 17  1  0  0  0
 17 18  2  0  0  0
 18 19  1  0  0  0
 19 20  2  0  0  0
 20 21  1  0  0  0
 21 22  2  0  0  0
  2  3  1  0  0  0
  3  4  1  0  0  0
  4  5  1  0  0  0
  5  6  1  0  0  0
  6  7  1  0  0  0
  7  8  1  0  0  0
  8  9  2  0  0  0
  9 10  1  0  0  0
 10 11  1  0  0  0
 22 13  1  0  0  0
 11  3  1  0  0  0
 22 17  1  0  0  0
 10  6  2  0  0  0
M  END
> <minimizedAffinity>
-6.17710

> <CNNscore>
0.3283445835

> <CNNaffinity>
4.7666254044

> <CNN_VS>
1.5650956631

> <CNNaffinity_variance>
0.0691482574

$$$$
