


 35 40  0  0  0  0  0  0  0  0999 V2000
    7.5504   -3.3202   23.4930 C   0  0  0  0  0  0  0  0  0  0  0  0
    7.7611   -2.0506   22.7224 C   0  0  0  0  0  0  0  0  0  0  0  0
    6.6609   -1.8047   21.7330 C   0  0  0  0  0  0  0  0  0  0  0  0
    6.9597   -0.5209   21.0170 N   0  0  0  0  0  0  0  0  0  0  0  0
    8.2447    0.0265   21.5639 C   0  0  0  0  0  0  0  0  0  0  0  0
    8.9164    1.2964   21.1326 O   0  0  0  0  0  0  0  0  0  0  0  0
    8.7400   -0.9189   22.6179 C   0  0  0  0  0  0  0  0  0  0  0  0
    9.6259    0.2721   22.4017 C   0  0  0  0  0  0  0  0  0  0  0  0
   10.8799    0.4307   23.2094 N   0  0  0  0  0  0  0  0  0  0  0  0
   11.2480   -0.6018   24.2333 C   0  0  0  0  0  0  0  0  0  0  0  0
   12.5020   -0.4433   25.0410 O   0  0  0  0  0  0  0  0  0  0  0  0
   10.3622   -1.7929   24.4495 C   0  0  0  0  0  0  0  0  0  0  0  0
   10.7304   -2.8254   25.4734 C   0  0  0  0  0  0  0  0  0  0  0  0
    9.8446   -4.0164   25.6896 C   0  0  0  0  0  0  0  0  0  0  0  0
    8.5906   -4.1749   24.8819 C   0  0  0  0  0  0  0  0  0  0  0  0
    7.7047   -5.3660   25.0982 F   0  0  0  0  0  0  0  0  0  0  0  0
    8.2224   -3.1424   23.8581 C   0  0  0  0  0  0  0  0  0  0  0  0
    9.1082   -1.9514   23.6419 C   0  0  0  0  0  0  0  0  0  0  0  0
    6.1209    0.1054   19.9427 C   0  0  0  0  0  0  0  0  0  0  0  0
    6.5089   -0.0496   18.5022 C   0  0  0  0  0  0  0  0  0  0  0  0
    5.6701    0.5768   17.4279 N   0  0  0  0  0  0  0  0  0  0  0  0
    4.4433    1.3581   17.7943 C   0  0  0  0  0  0  0  0  0  0  0  0
    4.0552    1.5131   19.2349 C   0  0  0  0  0  0  0  0  0  0  0  0
    2.8283    2.2945   19.6013 C   0  0  0  0  0  0  0  0  0  0  0  0
    2.4403    2.4495   21.0420 C   0  0  0  0  0  0  0  0  0  0  0  0
    3.2791    1.8231   22.1161 C   0  0  0  0  0  0  0  0  0  0  0  0
    4.5060    1.0418   21.7498 C   0  0  0  0  0  0  0  0  0  0  0  0
    4.8940    0.8868   20.3092 C   0  0  0  0  0  0  0  0  0  0  0  0
   11.7657    1.6218   22.9931 C   0  0  0  0  0  0  0  0  0  0  0  0
   11.1770    3.0013   22.9776 C   0  0  0  0  0  0  0  0  0  0  0  0
   11.9442    4.2861   22.8745 C   0  0  0  0  0  0  0  0  0  0  0  0
   10.9591    5.4171   22.8956 N   0  0  0  0  0  0  0  0  0  0  0  0
    9.5831    4.8313   23.0117 N   0  0  0  0  0  0  0  0  0  0  0  0
    9.7178    3.3382   23.0624 C   0  0  0  0  0  0  0  0  0  0  0  0
    8.7397    5.3378   23.0483 H   0  0  0  0  0  0  0  0  0  0  0  0
  2  1  1  0  0  0
  2  3  1  0  0  0
  3  4  1  0  0  0
  4 19  1  0  0  0
 19 20  2  0  0  0
 20 21  1  0  0  0
 21 22  2  0  0  0
 22 23  1  0  0  0
 23 24  2  0  0  0
 24 25  1  0  0  0
 25 26  2  0  0  0
 26 27  1  0  0  0
 27 28  2  0  0  0
  4  5  1  0  0  0
  5  6  2  0  0  0
  5  7  1  0  0  0
  7  8  1  0  0  0
  8  9  1  0  0  0
  9 29  1  0  0  0
 29 30  1  0  0  0
 30 31  1  0  0  0
 31 32  2  0  0  0
 32 33  1  0  0  0
 33 34  1  0  0  0
  9 10  1  0  0  0
 10 11  2  0  0  0
 10 12  1  0  0  0
 12 13  2  0  0  0
 13 14  1  0  0  0
 14 15  2  0  0  0
 15 16  1  0  0  0
 15 17  1  0  0  0
 17 18  2  0  0  0
  7  2  1  0  0  0
 34 30  2  0  0  0
 18 12  1  0  0  0
 28 19  1  0  0  0
 18  7  1  0  0  0
 28 23  1  0  0  0
 33 35  1  0  0  0
M  END
> <minimizedAffinity>
-10.17489

> <CNNscore>
0.7039563656

> <CNNaffinity>
6.8515892029

> <CNN_VS>
4.8232197762

> <CNNaffinity_variance>
0.0959338471

$$$$



 35 40  0  0  0  0  0  0  0  0999 V2000
    5.3259   -4.5339   22.4317 C   0  0  0  0  0  0  0  0  0  0  0  0
    5.9158   -3.2109   22.0419 C   0  0  0  0  0  0  0  0  0  0  0  0
    5.0793   -2.5026   21.0178 C   0  0  0  0  0  0  0  0  0  0  0  0
    5.7473   -1.1989   20.6951 N   0  0  0  0  0  0  0  0  0  0  0  0
    6.9965   -1.1015   21.5197 C   0  0  0  0  0  0  0  0  0  0  0  0
    7.9706    0.0392   21.5130 O   0  0  0  0  0  0  0  0  0  0  0  0
    7.1006   -2.3450   22.3521 C   0  0  0  0  0  0  0  0  0  0  0  0
    8.2273   -1.3765   22.5585 C   0  0  0  0  0  0  0  0  0  0  0  0
    9.3238   -1.6977   23.5304 N   0  0  0  0  0  0  0  0  0  0  0  0
    9.2936   -2.9873   24.2959 C   0  0  0  0  0  0  0  0  0  0  0  0
   10.3900   -3.3084   25.2678 O   0  0  0  0  0  0  0  0  0  0  0  0
    8.1669   -3.9558   24.0895 C   0  0  0  0  0  0  0  0  0  0  0  0
    8.1366   -5.2454   24.8549 C   0  0  0  0  0  0  0  0  0  0  0  0
    7.0100   -6.2138   24.6485 C   0  0  0  0  0  0  0  0  0  0  0  0
    5.9135   -5.8927   23.6766 C   0  0  0  0  0  0  0  0  0  0  0  0
    4.7868   -6.8612   23.4702 F   0  0  0  0  0  0  0  0  0  0  0  0
    5.9437   -4.6031   22.9111 C   0  0  0  0  0  0  0  0  0  0  0  0
    7.0704   -3.6347   23.1176 C   0  0  0  0  0  0  0  0  0  0  0  0
    5.2528   -0.1728   19.7191 C   0  0  0  0  0  0  0  0  0  0  0  0
    5.6730   -0.2420   18.2808 C   0  0  0  0  0  0  0  0  0  0  0  0
    5.1786    0.7842   17.3048 N   0  0  0  0  0  0  0  0  0  0  0  0
    4.2640    1.8795   17.7672 C   0  0  0  0  0  0  0  0  0  0  0  0
    3.8438    1.9487   19.2055 C   0  0  0  0  0  0  0  0  0  0  0  0
    2.9291    3.0440   19.6678 C   0  0  0  0  0  0  0  0  0  0  0  0
    2.5090    3.1132   21.1061 C   0  0  0  0  0  0  0  0  0  0  0  0
    3.0035    2.0870   22.0820 C   0  0  0  0  0  0  0  0  0  0  0  0
    3.9181    0.9917   21.6197 C   0  0  0  0  0  0  0  0  0  0  0  0
    4.3382    0.9225   20.1815 C   0  0  0  0  0  0  0  0  0  0  0  0
   10.4505   -0.7292   23.7368 C   0  0  0  0  0  0  0  0  0  0  0  0
   11.7508   -1.2034   24.3150 C   0  0  0  0  0  0  0  0  0  0  0  0
   12.1907   -1.0480   25.7405 C   0  0  0  0  0  0  0  0  0  0  0  0
   13.5513   -1.6649   25.8757 N   0  0  0  0  0  0  0  0  0  0  0  0
   13.9522   -2.2017   24.5336 N   0  0  0  0  0  0  0  0  0  0  0  0
   12.8394   -1.9165   23.5690 C   0  0  0  0  0  0  0  0  0  0  0  0
   14.7973   -2.6606   24.3228 H   0  0  0  0  0  0  0  0  0  0  0  0
  2  1  1  0  0  0
  2  3  1  0  0  0
  3  4  1  0  0  0
  4 19  1  0  0  0
 19 20  2  0  0  0
 20 21  1  0  0  0
 21 22  2  0  0  0
 22 23  1  0  0  0
 23 24  2  0  0  0
 24 25  1  0  0  0
 25 26  2  0  0  0
 26 27  1  0  0  0
 27 28  2  0  0  0
  4  5  1  0  0  0
  5  6  2  0  0  0
  5  7  1  0  0  0
  7  8  1  0  0  0
  8  9  1  0  0  0
  9 29  1  0  0  0
 29 30  1  0  0  0
 30 31  1  0  0  0
 31 32  2  0  0  0
 32 33  1  0  0  0
 33 34  1  0  0  0
  9 10  1  0  0  0
 10 11  2  0  0  0
 10 12  1  0  0  0
 12 13  2  0  0  0
 13 14  1  0  0  0
 14 15  2  0  0  0
 15 16  1  0  0  0
 15 17  1  0  0  0
 17 18  2  0  0  0
  7  2  1  0  0  0
 34 30  2  0  0  0
 18 12  1  0  0  0
 28 19  1  0  0  0
 18  7  1  0  0  0
 28 23  1  0  0  0
 33 35  1  0  0  0
M  END
> <minimizedAffinity>
-8.20644

> <CNNscore>
0.4945004582

> <CNNaffinity>
6.5835862160

> <CNN_VS>
3.2555863857

> <CNNaffinity_variance>
0.0370466337

$$$$



 35 40  0  0  0  0  0  0  0  0999 V2000
    5.7488   -0.4410   26.6737 C   0  0  0  0  0  0  0  0  0  0  0  0
    6.4976   -0.0953   25.4206 C   0  0  0  0  0  0  0  0  0  0  0  0
    7.9731   -0.3225   25.5670 C   0  0  0  0  0  0  0  0  0  0  0  0
    8.6301    0.0491   24.2708 N   0  0  0  0  0  0  0  0  0  0  0  0
    7.5607    0.5059   23.3233 C   0  0  0  0  0  0  0  0  0  0  0  0
    7.7722    0.9704   21.9128 O   0  0  0  0  0  0  0  0  0  0  0  0
    6.2427    0.4166   24.0340 C   0  0  0  0  0  0  0  0  0  0  0  0
    6.1428    0.9182   22.6239 C   0  0  0  0  0  0  0  0  0  0  0  0
    4.8049    1.2778   22.0488 N   0  0  0  0  0  0  0  0  0  0  0  0
    3.5669    1.1358   22.8838 C   0  0  0  0  0  0  0  0  0  0  0  0
    2.2290    1.4954   22.3087 O   0  0  0  0  0  0  0  0  0  0  0  0
    3.6668    0.6342   24.2939 C   0  0  0  0  0  0  0  0  0  0  0  0
    2.4289    0.4922   25.1289 C   0  0  0  0  0  0  0  0  0  0  0  0
    2.5288   -0.0094   26.5390 C   0  0  0  0  0  0  0  0  0  0  0  0
    3.8667   -0.3690   27.1141 C   0  0  0  0  0  0  0  0  0  0  0  0
    3.9666   -0.8706   28.5243 F   0  0  0  0  0  0  0  0  0  0  0  0
    5.1047   -0.2270   26.2791 C   0  0  0  0  0  0  0  0  0  0  0  0
    5.0047    0.2746   24.8690 C   0  0  0  0  0  0  0  0  0  0  0  0
   10.0987   -0.0234   23.9741 C   0  0  0  0  0  0  0  0  0  0  0  0
   10.7075    0.9081   22.9685 C   0  0  0  0  0  0  0  0  0  0  0  0
   12.1761    0.8356   22.6718 N   0  0  0  0  0  0  0  0  0  0  0  0
   13.0358   -0.1684   23.3808 C   0  0  0  0  0  0  0  0  0  0  0  0
   12.4269   -1.1000   24.3866 C   0  0  0  0  0  0  0  0  0  0  0  0
   13.2867   -2.1041   25.0957 C   0  0  0  0  0  0  0  0  0  0  0  0
   12.6777   -3.0356   26.1014 C   0  0  0  0  0  0  0  0  0  0  0  0
   11.2092   -2.9630   26.3980 C   0  0  0  0  0  0  0  0  0  0  0  0
   10.3495   -1.9590   25.6889 C   0  0  0  0  0  0  0  0  0  0  0  0
   10.9583   -1.0275   24.6833 C   0  0  0  0  0  0  0  0  0  0  0  0
    4.7050    1.7794   20.6386 C   0  0  0  0  0  0  0  0  0  0  0  0
    4.9326    0.8409   19.4909 C   0  0  0  0  0  0  0  0  0  0  0  0
    4.7526    1.1655   18.0375 C   0  0  0  0  0  0  0  0  0  0  0  0
    5.0890   -0.0617   17.2434 N   0  0  0  0  0  0  0  0  0  0  0  0
    5.4769   -1.1448   18.2059 N   0  0  0  0  0  0  0  0  0  0  0  0
    5.3803   -0.5869   19.5949 C   0  0  0  0  0  0  0  0  0  0  0  0
    5.7475   -2.0610   17.9677 H   0  0  0  0  0  0  0  0  0  0  0  0
  2  1  1  0  0  0
  2  3  1  0  0  0
  3  4  1  0  0  0
  4 19  1  0  0  0
 19 20  2  0  0  0
 20 21  1  0  0  0
 21 22  2  0  0  0
 22 23  1  0  0  0
 23 24  2  0  0  0
 24 25  1  0  0  0
 25 26  2  0  0  0
 26 27  1  0  0  0
 27 28  2  0  0  0
  4  5  1  0  0  0
  5  6  2  0  0  0
  5  7  1  0  0  0
  7  8  1  0  0  0
  8  9  1  0  0  0
  9 29  1  0  0  0
 29 30  1  0  0  0
 30 31  1  0  0  0
 31 32  2  0  0  0
 32 33  1  0  0  0
 33 34  1  0  0  0
  9 10  1  0  0  0
 10 11  2  0  0  0
 10 12  1  0  0  0
 12 13  2  0  0  0
 13 14  1  0  0  0
 14 15  2  0  0  0
 15 16  1  0  0  0
 15 17  1  0  0  0
 17 18  2  0  0  0
  7  2  1  0  0  0
 34 30  2  0  0  0
 18 12  1  0  0  0
 28 19  1  0  0  0
 18  7  1  0  0  0
 28 23  1  0  0  0
 33 35  1  0  0  0
M  END
> <minimizedAffinity>
-8.57607

> <CNNscore>
0.4780209363

> <CNNaffinity>
6.5045127869

> <CNN_VS>
3.1092932224

> <CNNaffinity_variance>
0.0338851698

$$$$



 35 40  0  0  0  0  0  0  0  0999 V2000
   10.9645    0.0893   22.5549 C   0  0  0  0  0  0  0  0  0  0  0  0
    9.5924   -0.4749   22.3330 C   0  0  0  0  0  0  0  0  0  0  0  0
    8.8086    0.3288   21.3382 C   0  0  0  0  0  0  0  0  0  0  0  0
    7.4602   -0.3103   21.1854 N   0  0  0  0  0  0  0  0  0  0  0  0
    7.4106   -1.5089   22.0859 C   0  0  0  0  0  0  0  0  0  0  0  0
    6.2475   -2.4420   22.2485 O   0  0  0  0  0  0  0  0  0  0  0  0
    8.7284   -1.6107   22.7952 C   0  0  0  0  0  0  0  0  0  0  0  0
    7.7537   -2.6905   23.1611 C   0  0  0  0  0  0  0  0  0  0  0  0
    8.1398   -3.7431   24.1575 N   0  0  0  0  0  0  0  0  0  0  0  0
    9.5005   -3.7160   24.7880 C   0  0  0  0  0  0  0  0  0  0  0  0
    9.8866   -4.7687   25.7844 O   0  0  0  0  0  0  0  0  0  0  0  0
   10.4753   -2.6362   24.4221 C   0  0  0  0  0  0  0  0  0  0  0  0
   11.8361   -2.6091   25.0526 C   0  0  0  0  0  0  0  0  0  0  0  0
   12.8108   -1.5293   24.6866 C   0  0  0  0  0  0  0  0  0  0  0  0
   12.4247   -0.4766   23.6902 C   0  0  0  0  0  0  0  0  0  0  0  0
   13.3995    0.6032   23.3243 F   0  0  0  0  0  0  0  0  0  0  0  0
   11.0640   -0.5037   23.0597 C   0  0  0  0  0  0  0  0  0  0  0  0
   10.0893   -1.5835   23.4257 C   0  0  0  0  0  0  0  0  0  0  0  0
    6.3552    0.1657   20.2896 C   0  0  0  0  0  0  0  0  0  0  0  0
    6.4695   -0.0026   18.8035 C   0  0  0  0  0  0  0  0  0  0  0  0
    5.3646    0.4733   17.9076 N   0  0  0  0  0  0  0  0  0  0  0  0
    4.1454    1.1176   18.4979 C   0  0  0  0  0  0  0  0  0  0  0  0
    4.0312    1.2860   19.9840 C   0  0  0  0  0  0  0  0  0  0  0  0
    2.8119    1.9303   20.5743 C   0  0  0  0  0  0  0  0  0  0  0  0
    2.6977    2.0986   22.0605 C   0  0  0  0  0  0  0  0  0  0  0  0
    3.8026    1.6226   22.9562 C   0  0  0  0  0  0  0  0  0  0  0  0
    5.0218    0.9783   22.3660 C   0  0  0  0  0  0  0  0  0  0  0  0
    5.1361    0.8100   20.8799 C   0  0  0  0  0  0  0  0  0  0  0  0
    7.1650   -4.8230   24.5234 C   0  0  0  0  0  0  0  0  0  0  0  0
    6.2821   -5.4246   23.4705 C   0  0  0  0  0  0  0  0  0  0  0  0
    4.7835   -5.3690   23.4394 C   0  0  0  0  0  0  0  0  0  0  0  0
    4.3180   -6.0975   22.2136 N   0  0  0  0  0  0  0  0  0  0  0  0
    5.5290   -6.6034   21.4871 N   0  0  0  0  0  0  0  0  0  0  0  0
    6.7428   -6.1875   22.2640 C   0  0  0  0  0  0  0  0  0  0  0  0
    5.5273   -7.1180   20.6478 H   0  0  0  0  0  0  0  0  0  0  0  0
  2  1  1  0  0  0
  2  3  1  0  0  0
  3  4  1  0  0  0
  4 19  1  0  0  0
 19 20  2  0  0  0
 20 21  1  0  0  0
 21 22  2  0  0  0
 22 23  1  0  0  0
 23 24  2  0  0  0
 24 25  1  0  0  0
 25 26  2  0  0  0
 26 27  1  0  0  0
 27 28  2  0  0  0
  4  5  1  0  0  0
  5  6  2  0  0  0
  5  7  1  0  0  0
  7  8  1  0  0  0
  8  9  1  0  0  0
  9 29  1  0  0  0
 29 30  1  0  0  0
 30 31  1  0  0  0
 31 32  2  0  0  0
 32 33  1  0  0  0
 33 34  1  0  0  0
  9 10  1  0  0  0
 10 11  2  0  0  0
 10 12  1  0  0  0
 12 13  2  0  0  0
 13 14  1  0  0  0
 14 15  2  0  0  0
 15 16  1  0  0  0
 15 17  1  0  0  0
 17 18  2  0  0  0
  7  2  1  0  0  0
 34 30  2  0  0  0
 18 12  1  0  0  0
 28 19  1  0  0  0
 18  7  1  0  0  0
 28 23  1  0  0  0
 33 35  1  0  0  0
M  END
> <minimizedAffinity>
-9.59698

> <CNNscore>
0.4622542560

> <CNNaffinity>
6.6577072144

> <CNN_VS>
3.0775535107

> <CNNaffinity_variance>
0.1988011152

$$$$



 35 40  0  0  0  0  0  0  0  0999 V2000
   11.6257   -1.4016   25.1551 C   0  0  0  0  0  0  0  0  0  0  0  0
   10.8465   -0.4259   24.3238 C   0  0  0  0  0  0  0  0  0  0  0  0
   11.5799    0.8702   24.1440 C   0  0  0  0  0  0  0  0  0  0  0  0
   10.7255    1.7736   23.3049 N   0  0  0  0  0  0  0  0  0  0  0  0
    9.4642    1.0358   22.9662 C   0  0  0  0  0  0  0  0  0  0  0  0
    8.3276    1.5645   22.1424 O   0  0  0  0  0  0  0  0  0  0  0  0
    9.5390   -0.3236   23.5959 C   0  0  0  0  0  0  0  0  0  0  0  0
    8.2748   -0.0759   22.8276 C   0  0  0  0  0  0  0  0  0  0  0  0
    7.2262   -1.1452   22.7441 N   0  0  0  0  0  0  0  0  0  0  0  0
    7.4417   -2.4622   23.4289 C   0  0  0  0  0  0  0  0  0  0  0  0
    6.3931   -3.5315   23.3454 O   0  0  0  0  0  0  0  0  0  0  0  0
    8.7060   -2.7099   24.1974 C   0  0  0  0  0  0  0  0  0  0  0  0
    8.9215   -4.0269   24.8823 C   0  0  0  0  0  0  0  0  0  0  0  0
   10.1857   -4.2745   25.6506 C   0  0  0  0  0  0  0  0  0  0  0  0
   11.2343   -3.2052   25.7341 C   0  0  0  0  0  0  0  0  0  0  0  0
   12.4986   -3.4529   26.5026 F   0  0  0  0  0  0  0  0  0  0  0  0
   11.0188   -1.8883   25.0493 C   0  0  0  0  0  0  0  0  0  0  0  0
    9.7546   -1.6406   24.2809 C   0  0  0  0  0  0  0  0  0  0  0  0
   11.0717    3.1697   22.8793 C   0  0  0  0  0  0  0  0  0  0  0  0
   12.4206    3.4620   22.2921 C   0  0  0  0  0  0  0  0  0  0  0  0
   12.7667    4.8580   21.8665 N   0  0  0  0  0  0  0  0  0  0  0  0
   11.7639    5.9617   22.0280 C   0  0  0  0  0  0  0  0  0  0  0  0
   10.4149    5.6694   22.6152 C   0  0  0  0  0  0  0  0  0  0  0  0
    9.4120    6.7732   22.7767 C   0  0  0  0  0  0  0  0  0  0  0  0
    8.0630    6.4807   23.3639 C   0  0  0  0  0  0  0  0  0  0  0  0
    7.7170    5.0847   23.7895 C   0  0  0  0  0  0  0  0  0  0  0  0
    8.7198    3.9810   23.6280 C   0  0  0  0  0  0  0  0  0  0  0  0
   10.0687    4.2733   23.0408 C   0  0  0  0  0  0  0  0  0  0  0  0
    5.9619   -0.8975   21.9756 C   0  0  0  0  0  0  0  0  0  0  0  0
    6.0067   -0.7584   20.4828 C   0  0  0  0  0  0  0  0  0  0  0  0
    6.8709    0.1946   19.7116 C   0  0  0  0  0  0  0  0  0  0  0  0
    6.5934   -0.0059   18.2512 N   0  0  0  0  0  0  0  0  0  0  0  0
    5.5576   -1.0830   18.1198 N   0  0  0  0  0  0  0  0  0  0  0  0
    5.1950   -1.5480   19.4990 C   0  0  0  0  0  0  0  0  0  0  0  0
    5.1818   -1.4246   17.2764 H   0  0  0  0  0  0  0  0  0  0  0  0
  2  1  1  0  0  0
  2  3  1  0  0  0
  3  4  1  0  0  0
  4 19  1  0  0  0
 19 20  2  0  0  0
 20 21  1  0  0  0
 21 22  2  0  0  0
 22 23  1  0  0  0
 23 24  2  0  0  0
 24 25  1  0  0  0
 25 26  2  0  0  0
 26 27  1  0  0  0
 27 28  2  0  0  0
  4  5  1  0  0  0
  5  6  2  0  0  0
  5  7  1  0  0  0
  7  8  1  0  0  0
  8  9  1  0  0  0
  9 29  1  0  0  0
 29 30  1  0  0  0
 30 31  1  0  0  0
 31 32  2  0  0  0
 32 33  1  0  0  0
 33 34  1  0  0  0
  9 10  1  0  0  0
 10 11  2  0  0  0
 10 12  1  0  0  0
 12 13  2  0  0  0
 13 14  1  0  0  0
 14 15  2  0  0  0
 15 16  1  0  0  0
 15 17  1  0  0  0
 17 18  2  0  0  0
  7  2  1  0  0  0
 34 30  2  0  0  0
 18 12  1  0  0  0
 28 19  1  0  0  0
 18  7  1  0  0  0
 28 23  1  0  0  0
 33 35  1  0  0  0
M  END
> <minimizedAffinity>
-9.21866

> <CNNscore>
0.4116914868

> <CNNaffinity>
6.6610679626

> <CNN_VS>
2.7423050404

> <CNNaffinity_variance>
0.0633507669

$$$$



 35 40  0  0  0  0  0  0  0  0999 V2000
   11.0037   -3.3860   26.1243 C   0  0  0  0  0  0  0  0  0  0  0  0
    9.6248   -2.8949   25.7964 C   0  0  0  0  0  0  0  0  0  0  0  0
    8.5611   -3.7971   26.3481 C   0  0  0  0  0  0  0  0  0  0  0  0
    7.2267   -3.2254   25.9704 N   0  0  0  0  0  0  0  0  0  0  0  0
    7.4658   -1.9699   25.1852 C   0  0  0  0  0  0  0  0  0  0  0  0
    6.4084   -1.0757   24.6087 O   0  0  0  0  0  0  0  0  0  0  0  0
    8.9480   -1.7656   25.0777 C   0  0  0  0  0  0  0  0  0  0  0  0
    8.1349   -0.7033   24.3991 C   0  0  0  0  0  0  0  0  0  0  0  0
    8.8199    0.4310   23.6963 N   0  0  0  0  0  0  0  0  0  0  0  0
   10.3179    0.5032   23.6720 C   0  0  0  0  0  0  0  0  0  0  0  0
   11.0029    1.6375   22.9691 O   0  0  0  0  0  0  0  0  0  0  0  0
   11.1311   -0.5591   24.3506 C   0  0  0  0  0  0  0  0  0  0  0  0
   12.6291   -0.4870   24.3263 C   0  0  0  0  0  0  0  0  0  0  0  0
   13.4422   -1.5492   25.0049 C   0  0  0  0  0  0  0  0  0  0  0  0
   12.7572   -2.6836   25.7077 C   0  0  0  0  0  0  0  0  0  0  0  0
   13.5703   -3.7459   26.3863 F   0  0  0  0  0  0  0  0  0  0  0  0
   11.2591   -2.7557   25.7320 C   0  0  0  0  0  0  0  0  0  0  0  0
   10.4461   -1.6935   25.0534 C   0  0  0  0  0  0  0  0  0  0  0  0
    5.8882   -3.8071   26.3169 C   0  0  0  0  0  0  0  0  0  0  0  0
    5.1190   -4.5833   25.2894 C   0  0  0  0  0  0  0  0  0  0  0  0
    3.7806   -5.1650   25.6360 N   0  0  0  0  0  0  0  0  0  0  0  0
    3.2113   -4.9704   27.0100 C   0  0  0  0  0  0  0  0  0  0  0  0
    3.9806   -4.1942   28.0376 C   0  0  0  0  0  0  0  0  0  0  0  0
    3.4113   -3.9997   29.4117 C   0  0  0  0  0  0  0  0  0  0  0  0
    4.1806   -3.2235   30.4392 C   0  0  0  0  0  0  0  0  0  0  0  0
    5.5190   -2.6418   30.0926 C   0  0  0  0  0  0  0  0  0  0  0  0
    6.0882   -2.8364   28.7185 C   0  0  0  0  0  0  0  0  0  0  0  0
    5.3190   -3.6125   27.6910 C   0  0  0  0  0  0  0  0  0  0  0  0
    8.0067    1.4933   23.0176 C   0  0  0  0  0  0  0  0  0  0  0  0
    7.6780    2.7643   23.7433 C   0  0  0  0  0  0  0  0  0  0  0  0
    6.7998    2.8869   24.9531 C   0  0  0  0  0  0  0  0  0  0  0  0
    6.7487    4.3341   25.3440 N   0  0  0  0  0  0  0  0  0  0  0  0
    7.5954    5.1060   24.3758 N   0  0  0  0  0  0  0  0  0  0  0  0
    8.1696    4.1358   23.3864 C   0  0  0  0  0  0  0  0  0  0  0  0
    7.7474    6.0786   24.3875 H   0  0  0  0  0  0  0  0  0  0  0  0
  2  1  1  0  0  0
  2  3  1  0  0  0
  3  4  1  0  0  0
  4 19  1  0  0  0
 19 20  2  0  0  0
 20 21  1  0  0  0
 21 22  2  0  0  0
 22 23  1  0  0  0
 23 24  2  0  0  0
 24 25  1  0  0  0
 25 26  2  0  0  0
 26 27  1  0  0  0
 27 28  2  0  0  0
  4  5  1  0  0  0
  5  6  2  0  0  0
  5  7  1  0  0  0
  7  8  1  0  0  0
  8  9  1  0  0  0
  9 29  1  0  0  0
 29 30  1  0  0  0
 30 31  1  0  0  0
 31 32  2  0  0  0
 32 33  1  0  0  0
 33 34  1  0  0  0
  9 10  1  0  0  0
 10 11  2  0  0  0
 10 12  1  0  0  0
 12 13  2  0  0  0
 13 14  1  0  0  0
 14 15  2  0  0  0
 15 16  1  0  0  0
 15 17  1  0  0  0
 17 18  2  0  0  0
  7  2  1  0  0  0
 34 30  2  0  0  0
 18 12  1  0  0  0
 28 19  1  0  0  0
 18  7  1  0  0  0
 28 23  1  0  0  0
 33 35  1  0  0  0
M  END
> <minimizedAffinity>
-8.05335

> <CNNscore>
0.3915992379

> <CNNaffinity>
6.5726037025

> <CNN_VS>
2.5738265514

> <CNNaffinity_variance>
0.1604982316

$$$$



 35 40  0  0  0  0  0  0  0  0999 V2000
    9.1402   -0.9327   23.6812 C   0  0  0  0  0  0  0  0  0  0  0  0
    7.9753   -1.3305   22.8240 C   0  0  0  0  0  0  0  0  0  0  0  0
    7.5753   -0.2378   21.8774 C   0  0  0  0  0  0  0  0  0  0  0  0
    6.4105   -0.7279   21.0693 N   0  0  0  0  0  0  0  0  0  0  0  0
    6.0906   -2.1235   21.5165 C   0  0  0  0  0  0  0  0  0  0  0  0
    4.9958   -2.9939   20.9744 O   0  0  0  0  0  0  0  0  0  0  0  0
    7.0577   -2.4959   22.6010 C   0  0  0  0  0  0  0  0  0  0  0  0
    6.0701   -3.5745   22.2676 C   0  0  0  0  0  0  0  0  0  0  0  0
    6.1122   -4.8827   23.0003 N   0  0  0  0  0  0  0  0  0  0  0  0
    7.1420   -5.1123   24.0665 C   0  0  0  0  0  0  0  0  0  0  0  0
    7.1841   -6.4204   24.7992 O   0  0  0  0  0  0  0  0  0  0  0  0
    8.1297   -4.0337   24.3999 C   0  0  0  0  0  0  0  0  0  0  0  0
    9.1595   -4.2633   25.4661 C   0  0  0  0  0  0  0  0  0  0  0  0
   10.1472   -3.1848   25.7995 C   0  0  0  0  0  0  0  0  0  0  0  0
   10.1050   -1.8766   25.0668 C   0  0  0  0  0  0  0  0  0  0  0  0
   11.0928   -0.7980   25.4002 F   0  0  0  0  0  0  0  0  0  0  0  0
    9.0752   -1.6470   24.0006 C   0  0  0  0  0  0  0  0  0  0  0  0
    8.0876   -2.7255   23.6672 C   0  0  0  0  0  0  0  0  0  0  0  0
    5.6917    0.0423   20.0016 C   0  0  0  0  0  0  0  0  0  0  0  0
    6.1580   -0.0354   18.5781 C   0  0  0  0  0  0  0  0  0  0  0  0
    5.4393    0.7348   17.5103 N   0  0  0  0  0  0  0  0  0  0  0  0
    4.2542    1.5827   17.8661 C   0  0  0  0  0  0  0  0  0  0  0  0
    3.7878    1.6603   19.2897 C   0  0  0  0  0  0  0  0  0  0  0  0
    2.6026    2.5083   19.6455 C   0  0  0  0  0  0  0  0  0  0  0  0
    2.1363    2.5859   21.0690 C   0  0  0  0  0  0  0  0  0  0  0  0
    2.8551    1.8157   22.1367 C   0  0  0  0  0  0  0  0  0  0  0  0
    4.0402    0.9678   21.7809 C   0  0  0  0  0  0  0  0  0  0  0  0
    4.5066    0.8901   20.3575 C   0  0  0  0  0  0  0  0  0  0  0  0
    5.1245   -5.9612   22.6668 C   0  0  0  0  0  0  0  0  0  0  0  0
    3.8717   -6.1081   23.4786 C   0  0  0  0  0  0  0  0  0  0  0  0
    3.6978   -5.7032   24.9124 C   0  0  0  0  0  0  0  0  0  0  0  0
    2.2915   -6.0305   25.3191 N   0  0  0  0  0  0  0  0  0  0  0  0
    1.5964   -6.6376   24.1367 N   0  0  0  0  0  0  0  0  0  0  0  0
    2.5730   -6.6856   22.9992 C   0  0  0  0  0  0  0  0  0  0  0  0
    0.6630   -6.9498   24.1116 H   0  0  0  0  0  0  0  0  0  0  0  0
  2  1  1  0  0  0
  2  3  1  0  0  0
  3  4  1  0  0  0
  4 19  1  0  0  0
 19 20  2  0  0  0
 20 21  1  0  0  0
 21 22  2  0  0  0
 22 23  1  0  0  0
 23 24  2  0  0  0
 24 25  1  0  0  0
 25 26  2  0  0  0
 26 27  1  0  0  0
 27 28  2  0  0  0
  4  5  1  0  0  0
  5  6  2  0  0  0
  5  7  1  0  0  0
  7  8  1  0  0  0
  8  9  1  0  0  0
  9 29  1  0  0  0
 29 30  1  0  0  0
 30 31  1  0  0  0
 31 32  2  0  0  0
 32 33  1  0  0  0
 33 34  1  0  0  0
  9 10  1  0  0  0
 10 11  2  0  0  0
 10 12  1  0  0  0
 12 13  2  0  0  0
 13 14  1  0  0  0
 14 15  2  0  0  0
 15 16  1  0  0  0
 15 17  1  0  0  0
 17 18  2  0  0  0
  7  2  1  0  0  0
 34 30  2  0  0  0
 18 12  1  0  0  0
 28 19  1  0  0  0
 18  7  1  0  0  0
 28 23  1  0  0  0
 33 35  1  0  0  0
M  END
> <minimizedAffinity>
-8.25632

> <CNNscore>
0.3752809465

> <CNNaffinity>
6.4102988243

> <CNN_VS>
2.4056630135

> <CNNaffinity_variance>
0.0399668291

$$$$



 35 40  0  0  0  0  0  0  0  0999 V2000
   10.3501   -2.7203   24.2994 C   0  0  0  0  0  0  0  0  0  0  0  0
    8.9425   -2.6119   23.7923 C   0  0  0  0  0  0  0  0  0  0  0  0
    8.1347   -3.8350   24.1113 C   0  0  0  0  0  0  0  0  0  0  0  0
    6.7517   -3.6319   23.5673 N   0  0  0  0  0  0  0  0  0  0  0  0
    6.7047   -2.2833   22.9121 C   0  0  0  0  0  0  0  0  0  0  0  0
    5.5130   -1.6724   22.2364 O   0  0  0  0  0  0  0  0  0  0  0  0
    8.0587   -1.6530   23.0511 C   0  0  0  0  0  0  0  0  0  0  0  0
    7.0610   -0.8012   22.3239 C   0  0  0  0  0  0  0  0  0  0  0  0
    7.4610    0.5508   21.8117 N   0  0  0  0  0  0  0  0  0  0  0  0
    8.8587    1.0508   22.0268 C   0  0  0  0  0  0  0  0  0  0  0  0
    9.2587    2.4028   21.5146 O   0  0  0  0  0  0  0  0  0  0  0  0
    9.8565    0.1990   22.7541 C   0  0  0  0  0  0  0  0  0  0  0  0
   11.2542    0.6991   22.9692 C   0  0  0  0  0  0  0  0  0  0  0  0
   12.2519   -0.1528   23.6964 C   0  0  0  0  0  0  0  0  0  0  0  0
   11.8519   -1.5047   24.2086 C   0  0  0  0  0  0  0  0  0  0  0  0
   12.8497   -2.3565   24.9359 F   0  0  0  0  0  0  0  0  0  0  0  0
   10.4542   -2.0048   23.9935 C   0  0  0  0  0  0  0  0  0  0  0  0
    9.4565   -1.1529   23.2663 C   0  0  0  0  0  0  0  0  0  0  0  0
    5.6151   -4.6062   23.6618 C   0  0  0  0  0  0  0  0  0  0  0  0
    5.1247   -5.3083   22.4304 C   0  0  0  0  0  0  0  0  0  0  0  0
    3.9882   -6.2826   22.5250 N   0  0  0  0  0  0  0  0  0  0  0  0
    3.3421   -6.5548   23.8510 C   0  0  0  0  0  0  0  0  0  0  0  0
    3.8325   -5.8527   25.0825 C   0  0  0  0  0  0  0  0  0  0  0  0
    3.1863   -6.1249   26.4086 C   0  0  0  0  0  0  0  0  0  0  0  0
    3.6768   -5.4228   27.6400 C   0  0  0  0  0  0  0  0  0  0  0  0
    4.8133   -4.4485   27.5454 C   0  0  0  0  0  0  0  0  0  0  0  0
    5.4594   -4.1763   26.2194 C   0  0  0  0  0  0  0  0  0  0  0  0
    4.9690   -4.8783   24.9879 C   0  0  0  0  0  0  0  0  0  0  0  0
    6.4632    1.4026   21.0845 C   0  0  0  0  0  0  0  0  0  0  0  0
    5.8971    0.9415   19.7742 C   0  0  0  0  0  0  0  0  0  0  0  0
    6.5391   -0.0310   18.8298 C   0  0  0  0  0  0  0  0  0  0  0  0
    5.6284   -0.2016   17.6502 N   0  0  0  0  0  0  0  0  0  0  0  0
    4.4235    0.6655   17.8655 N   0  0  0  0  0  0  0  0  0  0  0  0
    4.5896    1.3720   19.1783 C   0  0  0  0  0  0  0  0  0  0  0  0
    3.6580    0.7552   17.2529 H   0  0  0  0  0  0  0  0  0  0  0  0
  2  1  1  0  0  0
  2  3  1  0  0  0
  3  4  1  0  0  0
  4 19  1  0  0  0
 19 20  2  0  0  0
 20 21  1  0  0  0
 21 22  2  0  0  0
 22 23  1  0  0  0
 23 24  2  0  0  0
 24 25  1  0  0  0
 25 26  2  0  0  0
 26 27  1  0  0  0
 27 28  2  0  0  0
  4  5  1  0  0  0
  5  6  2  0  0  0
  5  7  1  0  0  0
  7  8  1  0  0  0
  8  9  1  0  0  0
  9 29  1  0  0  0
 29 30  1  0  0  0
 30 31  1  0  0  0
 31 32  2  0  0  0
 32 33  1  0  0  0
 33 34  1  0  0  0
  9 10  1  0  0  0
 10 11  2  0  0  0
 10 12  1  0  0  0
 12 13  2  0  0  0
 13 14  1  0  0  0
 14 15  2  0  0  0
 15 16  1  0  0  0
 15 17  1  0  0  0
 17 18  2  0  0  0
  7  2  1  0  0  0
 34 30  2  0  0  0
 18 12  1  0  0  0
 28 19  1  0  0  0
 18  7  1  0  0  0
 28 23  1  0  0  0
 33 35  1  0  0  0
M  END
> <minimizedAffinity>
-9.40341

> <CNNscore>
0.3225174844

> <CNNaffinity>
6.4664831161

> <CNN_VS>
2.0855538845

> <CNNaffinity_variance>
0.1094069630

$$$$



 35 40  0  0  0  0  0  0  0  0999 V2000
   10.4407   -3.5049   25.2582 C   0  0  0  0  0  0  0  0  0  0  0  0
    9.1746   -3.2515   24.4947 C   0  0  0  0  0  0  0  0  0  0  0  0
    8.1931   -4.3757   24.6454 C   0  0  0  0  0  0  0  0  0  0  0  0
    6.9682   -4.0312   23.8509 N   0  0  0  0  0  0  0  0  0  0  0  0
    7.1928   -2.6941   23.2093 C   0  0  0  0  0  0  0  0  0  0  0  0
    6.2239   -1.9667   22.3250 O   0  0  0  0  0  0  0  0  0  0  0  0
    8.5564   -2.2122   23.6071 C   0  0  0  0  0  0  0  0  0  0  0  0
    7.8128   -1.2669   22.7109 C   0  0  0  0  0  0  0  0  0  0  0  0
    8.4469    0.0271   22.2944 N   0  0  0  0  0  0  0  0  0  0  0  0
    9.8246    0.3758   22.7741 C   0  0  0  0  0  0  0  0  0  0  0  0
   10.4587    1.6698   22.3575 O   0  0  0  0  0  0  0  0  0  0  0  0
   10.5684   -0.5695   23.6704 C   0  0  0  0  0  0  0  0  0  0  0  0
   11.9461   -0.2208   24.1501 C   0  0  0  0  0  0  0  0  0  0  0  0
   12.6898   -1.1661   25.0463 C   0  0  0  0  0  0  0  0  0  0  0  0
   12.0557   -2.4601   25.4629 C   0  0  0  0  0  0  0  0  0  0  0  0
   12.7994   -3.4055   26.3592 F   0  0  0  0  0  0  0  0  0  0  0  0
   10.6779   -2.8088   24.9832 C   0  0  0  0  0  0  0  0  0  0  0  0
    9.9343   -1.8635   24.0869 C   0  0  0  0  0  0  0  0  0  0  0  0
    5.7353   -4.8756   23.7210 C   0  0  0  0  0  0  0  0  0  0  0  0
    5.3927   -5.5048   22.4032 C   0  0  0  0  0  0  0  0  0  0  0  0
    4.1598   -6.3492   22.2732 N   0  0  0  0  0  0  0  0  0  0  0  0
    3.2695   -6.5643   23.4611 C   0  0  0  0  0  0  0  0  0  0  0  0
    3.6121   -5.9350   24.7789 C   0  0  0  0  0  0  0  0  0  0  0  0
    2.7217   -6.1501   25.9668 C   0  0  0  0  0  0  0  0  0  0  0  0
    3.0643   -5.5208   27.2846 C   0  0  0  0  0  0  0  0  0  0  0  0
    4.2972   -4.6765   27.4145 C   0  0  0  0  0  0  0  0  0  0  0  0
    5.1876   -4.4614   26.2266 C   0  0  0  0  0  0  0  0  0  0  0  0
    4.8450   -5.0906   24.9089 C   0  0  0  0  0  0  0  0  0  0  0  0
    7.7031    0.9725   21.3981 C   0  0  0  0  0  0  0  0  0  0  0  0
    6.7965    0.4366   20.3300 C   0  0  0  0  0  0  0  0  0  0  0  0
    7.2092   -0.4253   19.1739 C   0  0  0  0  0  0  0  0  0  0  0  0
    5.9857   -0.7261   18.3599 N   0  0  0  0  0  0  0  0  0  0  0  0
    4.8167   -0.0500   19.0130 N   0  0  0  0  0  0  0  0  0  0  0  0
    5.3178    0.6685   20.2306 C   0  0  0  0  0  0  0  0  0  0  0  0
    3.8844   -0.0738   18.6978 H   0  0  0  0  0  0  0  0  0  0  0  0
  2  1  1  0  0  0
  2  3  1  0  0  0
  3  4  1  0  0  0
  4 19  1  0  0  0
 19 20  2  0  0  0
 20 21  1  0  0  0
 21 22  2  0  0  0
 22 23  1  0  0  0
 23 24  2  0  0  0
 24 25  1  0  0  0
 25 26  2  0  0  0
 26 27  1  0  0  0
 27 28  2  0  0  0
  4  5  1  0  0  0
  5  6  2  0  0  0
  5  7  1  0  0  0
  7  8  1  0  0  0
  8  9  1  0  0  0
  9 29  1  0  0  0
 29 30  1  0  0  0
 30 31  1  0  0  0
 31 32  2  0  0  0
 32 33  1  0  0  0
 33 34  1  0  0  0
  9 10  1  0  0  0
 10 11  2  0  0  0
 10 12  1  0  0  0
 12 13  2  0  0  0
 13 14  1  0  0  0
 14 15  2  0  0  0
 15 16  1  0  0  0
 15 17  1  0  0  0
 17 18  2  0  0  0
  7  2  1  0  0  0
 34 30  2  0  0  0
 18 12  1  0  0  0
 28 19  1  0  0  0
 18  7  1  0  0  0
 28 23  1  0  0  0
 33 35  1  0  0  0
M  END
> <minimizedAffinity>
-9.27003

> <CNNscore>
0.3224653006

> <CNNaffinity>
6.4886846542

> <CNN_VS>
2.0923757553

> <CNNaffinity_variance>
0.1488246769

$$$$
