


 37 40  0  0  0  0  0  0  0  0999 V2000
    9.7160    1.6252   23.4987 N   0  0  0  0  0  0  0  0  0  0  0  0
   10.3336    0.2687   23.3302 C   0  0  0  0  0  0  0  0  0  0  0  0
   11.6991    0.1363   22.7234 O   0  0  0  0  0  0  0  0  0  0  0  0
    9.5858   -0.9556   23.7684 C   0  0  0  0  0  0  0  0  0  0  0  0
    8.1773   -1.1803   23.3042 C   0  0  0  0  0  0  0  0  0  0  0  0
    7.4294   -2.4045   23.7425 N   0  0  0  0  0  0  0  0  0  0  0  0
    8.0901   -3.4040   24.6449 C   0  0  0  0  0  0  0  0  0  0  0  0
    7.3423   -4.6282   25.0831 O   0  0  0  0  0  0  0  0  0  0  0  0
    9.4987   -3.1793   25.1092 C   0  0  0  0  0  0  0  0  0  0  0  0
   10.1594   -4.1788   26.0116 C   0  0  0  0  0  0  0  0  0  0  0  0
   11.5679   -3.9541   26.4758 C   0  0  0  0  0  0  0  0  0  0  0  0
   12.3158   -2.7299   26.0376 C   0  0  0  0  0  0  0  0  0  0  0  0
   13.7244   -2.5052   26.5018 Cl  0  0  0  0  0  0  0  0  0  0  0  0
   11.6551   -1.7304   25.1351 C   0  0  0  0  0  0  0  0  0  0  0  0
   10.2466   -1.9551   24.6709 C   0  0  0  0  0  0  0  0  0  0  0  0
    6.0208   -2.6292   23.2782 C   0  0  0  0  0  0  0  0  0  0  0  0
    5.7323   -3.6636   22.2310 C   0  0  0  0  0  0  0  0  0  0  0  0
    5.1051   -3.2591   20.9299 O   0  0  0  0  0  0  0  0  0  0  0  0
    6.0710   -5.1026   22.4850 N   0  0  0  0  0  0  0  0  0  0  0  0
    5.7824   -6.1372   21.4378 C   0  0  0  0  0  0  0  0  0  0  0  0
    6.4827   -5.3681   23.3390 H   0  0  0  0  0  0  0  0  0  0  0  0
   10.4639    2.8494   23.0604 C   0  0  0  0  0  0  0  0  0  0  0  0
   11.8732    2.7287   22.5611 C   0  0  0  0  0  0  0  0  0  0  0  0
   12.6210    3.9529   22.1228 N   0  0  0  0  0  0  0  0  0  0  0  0
   11.9595    5.2978   22.1839 C   0  0  0  0  0  0  0  0  0  0  0  0
   10.5502    5.4185   22.6833 C   0  0  0  0  0  0  0  0  0  0  0  0
    9.8887    6.7634   22.7444 C   0  0  0  0  0  0  0  0  0  0  0  0
    8.4795    6.8840   23.2437 C   0  0  0  0  0  0  0  0  0  0  0  0
    7.7316    5.6598   23.6819 C   0  0  0  0  0  0  0  0  0  0  0  0
    8.3931    4.3150   23.6208 C   0  0  0  0  0  0  0  0  0  0  0  0
    9.8024    4.1942   23.1215 C   0  0  0  0  0  0  0  0  0  0  0  0
    8.3506    1.7575   24.1054 C   0  0  0  0  0  0  0  0  0  0  0  0
    5.7769    1.4724   23.8940 C   0  0  0  0  0  0  0  0  0  0  0  0
    7.1301    1.5690   23.2541 C   0  0  0  0  0  0  0  0  0  0  0  0
    7.2628    1.4771   21.7628 C   0  0  0  0  0  0  0  0  0  0  0  0
    6.1115    0.9860   20.9362 O   0  0  0  0  0  0  0  0  0  0  0  0
    8.5469    1.8763   21.0981 O   0  0  0  0  0  0  0  0  0  0  0  0
 33 34  2  0  0  0
 34 32  1  0  0  0
 32  1  1  0  0  0
  1  2  1  0  0  0
  2  3  2  0  0  0
  4  2  1  0  0  0
  4  5  1  0  0  0
  5  6  1  0  0  0
  6 16  1  0  0  0
 16 17  1  0  0  0
 17 18  2  0  0  0
 17 19  1  0  0  0
 19 20  1  0  0  0
  6  7  1  0  0  0
  7  8  2  0  0  0
  7  9  1  0  0  0
  9 10  2  0  0  0
 10 11  1  0  0  0
 11 12  2  0  0  0
 12 13  1  0  0  0
 12 14  1  0  0  0
 14 15  2  0  0  0
  1 22  1  0  0  0
 22 23  2  0  0  0
 23 24  1  0  0  0
 24 25  2  0  0  0
 25 26  1  0  0  0
 26 27  2  0  0  0
 27 28  1  0  0  0
 28 29  2  0  0  0
 29 30  1  0  0  0
 30 31  2  0  0  0
 34 35  1  0  0  0
 35 36  2  0  0  0
 35 37  1  0  0  0
 15  4  1  0  0  0
 31 22  1  0  0  0
 15  9  1  0  0  0
 31 26  1  0  0  0
 19 21  1  0  0  0
M  CHG 1  37  -1
M  END
> <minimizedAffinity>
-8.10199

> <CNNscore>
0.6580863595

> <CNNaffinity>
6.9098067284

> <CNN_VS>
4.5472493172

> <CNNaffinity_variance>
0.0768187195

$$$$



 37 40  0  0  0  0  0  0  0  0999 V2000
    8.0710   -2.2324   24.3100 N   0  0  0  0  0  0  0  0  0  0  0  0
    7.4242   -0.8935   24.5078 C   0  0  0  0  0  0  0  0  0  0  0  0
    7.8224   -0.0326   25.6700 O   0  0  0  0  0  0  0  0  0  0  0  0
    6.3794   -0.4155   23.5436 C   0  0  0  0  0  0  0  0  0  0  0  0
    6.3425   -0.9605   22.1466 C   0  0  0  0  0  0  0  0  0  0  0  0
    5.2976   -0.4825   21.1824 N   0  0  0  0  0  0  0  0  0  0  0  0
    4.2896    0.5405   21.6152 C   0  0  0  0  0  0  0  0  0  0  0  0
    3.2448    1.0186   20.6509 O   0  0  0  0  0  0  0  0  0  0  0  0
    4.3265    1.0856   23.0122 C   0  0  0  0  0  0  0  0  0  0  0  0
    3.3185    2.1086   23.4449 C   0  0  0  0  0  0  0  0  0  0  0  0
    3.3553    2.6536   24.8419 C   0  0  0  0  0  0  0  0  0  0  0  0
    4.4002    2.1756   25.8061 C   0  0  0  0  0  0  0  0  0  0  0  0
    4.4370    2.7206   27.2032 Cl  0  0  0  0  0  0  0  0  0  0  0  0
    5.4082    1.1526   25.3734 C   0  0  0  0  0  0  0  0  0  0  0  0
    5.3713    0.6076   23.9764 C   0  0  0  0  0  0  0  0  0  0  0  0
    5.2608   -1.0275   19.7854 C   0  0  0  0  0  0  0  0  0  0  0  0
    5.7277   -0.1819   18.6379 C   0  0  0  0  0  0  0  0  0  0  0  0
    7.1752   -0.1844   18.2447 O   0  0  0  0  0  0  0  0  0  0  0  0
    4.7470    0.6662   17.8835 N   0  0  0  0  0  0  0  0  0  0  0  0
    5.2139    1.5119   16.7359 C   0  0  0  0  0  0  0  0  0  0  0  0
    3.7970    0.6678   18.1416 H   0  0  0  0  0  0  0  0  0  0  0  0
    9.1158   -2.7104   25.2742 C   0  0  0  0  0  0  0  0  0  0  0  0
    8.7071   -3.4037   26.5401 C   0  0  0  0  0  0  0  0  0  0  0  0
    9.7520   -3.8818   27.5044 N   0  0  0  0  0  0  0  0  0  0  0  0
   11.2056   -3.6665   27.2027 C   0  0  0  0  0  0  0  0  0  0  0  0
   11.6142   -2.9732   25.9369 C   0  0  0  0  0  0  0  0  0  0  0  0
   13.0677   -2.7579   25.6352 C   0  0  0  0  0  0  0  0  0  0  0  0
   13.4763   -2.0647   24.3694 C   0  0  0  0  0  0  0  0  0  0  0  0
   12.4315   -1.5866   23.4052 C   0  0  0  0  0  0  0  0  0  0  0  0
   10.9780   -1.8019   23.7068 C   0  0  0  0  0  0  0  0  0  0  0  0
   10.5693   -2.4952   24.9726 C   0  0  0  0  0  0  0  0  0  0  0  0
    7.6728   -3.0933   23.1479 C   0  0  0  0  0  0  0  0  0  0  0  0
    7.6977   -5.3812   24.3787 C   0  0  0  0  0  0  0  0  0  0  0  0
    7.0702   -4.4457   23.3881 C   0  0  0  0  0  0  0  0  0  0  0  0
    5.8401   -4.8627   22.6379 C   0  0  0  0  0  0  0  0  0  0  0  0
    5.3130   -6.2599   22.7791 O   0  0  0  0  0  0  0  0  0  0  0  0
    5.1371   -3.8824   21.7463 O   0  0  0  0  0  0  0  0  0  0  0  0
 33 34  2  0  0  0
 34 32  1  0  0  0
 32  1  1  0  0  0
  1  2  1  0  0  0
  2  3  2  0  0  0
  4  2  1  0  0  0
  4  5  1  0  0  0
  5  6  1  0  0  0
  6 16  1  0  0  0
 16 17  1  0  0  0
 17 18  2  0  0  0
 17 19  1  0  0  0
 19 20  1  0  0  0
  6  7  1  0  0  0
  7  8  2  0  0  0
  7  9  1  0  0  0
  9 10  2  0  0  0
 10 11  1  0  0  0
 11 12  2  0  0  0
 12 13  1  0  0  0
 12 14  1  0  0  0
 14 15  2  0  0  0
  1 22  1  0  0  0
 22 23  2  0  0  0
 23 24  1  0  0  0
 24 25  2  0  0  0
 25 26  1  0  0  0
 26 27  2  0  0  0
 27 28  1  0  0  0
 28 29  2  0  0  0
 29 30  1  0  0  0
 30 31  2  0  0  0
 34 35  1  0  0  0
 35 36  2  0  0  0
 35 37  1  0  0  0
 15  4  1  0  0  0
 31 22  1  0  0  0
 15  9  1  0  0  0
 31 26  1  0  0  0
 19 21  1  0  0  0
M  CHG 1  37  -1
M  END
> <minimizedAffinity>
-7.45144

> <CNNscore>
0.4568933547

> <CNNaffinity>
6.6841211319

> <CNN_VS>
3.0539305210

> <CNNaffinity_variance>
0.0808055177

$$$$



 37 40  0  0  0  0  0  0  0  0999 V2000
    6.2316    0.6233   23.3519 N   0  0  0  0  0  0  0  0  0  0  0  0
    7.2436    1.3428   24.1934 C   0  0  0  0  0  0  0  0  0  0  0  0
    6.8138    2.4736   25.0804 O   0  0  0  0  0  0  0  0  0  0  0  0
    8.6854    0.9317   24.1478 C   0  0  0  0  0  0  0  0  0  0  0  0
    9.6812    1.7701   23.4026 C   0  0  0  0  0  0  0  0  0  0  0  0
   11.1231    1.3589   23.3571 N   0  0  0  0  0  0  0  0  0  0  0  0
   11.5691    0.1094   24.0568 C   0  0  0  0  0  0  0  0  0  0  0  0
   13.0109   -0.3018   24.0113 O   0  0  0  0  0  0  0  0  0  0  0  0
   10.5733   -0.7291   24.8021 C   0  0  0  0  0  0  0  0  0  0  0  0
   11.0193   -1.9787   25.5018 C   0  0  0  0  0  0  0  0  0  0  0  0
   10.0235   -2.8171   26.2470 C   0  0  0  0  0  0  0  0  0  0  0  0
    8.5817   -2.4059   26.2925 C   0  0  0  0  0  0  0  0  0  0  0  0
    7.5858   -3.2444   27.0378 Cl  0  0  0  0  0  0  0  0  0  0  0  0
    8.1356   -1.1564   25.5928 C   0  0  0  0  0  0  0  0  0  0  0  0
    9.1314   -0.3180   24.8476 C   0  0  0  0  0  0  0  0  0  0  0  0
   12.1189    2.1974   22.6118 C   0  0  0  0  0  0  0  0  0  0  0  0
   11.9861    3.6915   22.6058 C   0  0  0  0  0  0  0  0  0  0  0  0
   13.0928    4.5405   22.0542 O   0  0  0  0  0  0  0  0  0  0  0  0
   10.7467    4.3364   23.1513 N   0  0  0  0  0  0  0  0  0  0  0  0
   10.6138    5.8306   23.1453 C   0  0  0  0  0  0  0  0  0  0  0  0
   10.0203    3.7791   23.5133 H   0  0  0  0  0  0  0  0  0  0  0  0
    4.7898    1.0344   23.3975 C   0  0  0  0  0  0  0  0  0  0  0  0
    4.2713    2.0594   22.4327 C   0  0  0  0  0  0  0  0  0  0  0  0
    2.8295    2.4706   22.4782 N   0  0  0  0  0  0  0  0  0  0  0  0
    1.9061    1.8567   23.4885 C   0  0  0  0  0  0  0  0  0  0  0  0
    2.4245    0.8318   24.4532 C   0  0  0  0  0  0  0  0  0  0  0  0
    1.5011    0.2179   25.4635 C   0  0  0  0  0  0  0  0  0  0  0  0
    2.0196   -0.8070   26.4282 C   0  0  0  0  0  0  0  0  0  0  0  0
    3.4614   -1.2182   26.3827 C   0  0  0  0  0  0  0  0  0  0  0  0
    4.3848   -0.6044   25.3724 C   0  0  0  0  0  0  0  0  0  0  0  0
    3.8664    0.4206   24.4077 C   0  0  0  0  0  0  0  0  0  0  0  0
    6.6614   -0.5075   22.4649 C   0  0  0  0  0  0  0  0  0  0  0  0
    5.2728   -1.4837   20.4980 C   0  0  0  0  0  0  0  0  0  0  0  0
    6.2869   -0.5054   21.0125 C   0  0  0  0  0  0  0  0  0  0  0  0
    6.9264    0.4749   20.0745 C   0  0  0  0  0  0  0  0  0  0  0  0
    7.5679    1.7193   20.6131 O   0  0  0  0  0  0  0  0  0  0  0  0
    6.9244    0.2110   18.5978 O   0  0  0  0  0  0  0  0  0  0  0  0
 33 34  2  0  0  0
 34 32  1  0  0  0
 32  1  1  0  0  0
  1  2  1  0  0  0
  2  3  2  0  0  0
  4  2  1  0  0  0
  4  5  1  0  0  0
  5  6  1  0  0  0
  6 16  1  0  0  0
 16 17  1  0  0  0
 17 18  2  0  0  0
 17 19  1  0  0  0
 19 20  1  0  0  0
  6  7  1  0  0  0
  7  8  2  0  0  0
  7  9  1  0  0  0
  9 10  2  0  0  0
 10 11  1  0  0  0
 11 12  2  0  0  0
 12 13  1  0  0  0
 12 14  1  0  0  0
 14 15  2  0  0  0
  1 22  1  0  0  0
 22 23  2  0  0  0
 23 24  1  0  0  0
 24 25  2  0  0  0
 25 26  1  0  0  0
 26 27  2  0  0  0
 27 28  1  0  0  0
 28 29  2  0  0  0
 29 30  1  0  0  0
 30 31  2  0  0  0
 34 35  1  0  0  0
 35 36  2  0  0  0
 35 37  1  0  0  0
 15  4  1  0  0  0
 31 22  1  0  0  0
 15  9  1  0  0  0
 31 26  1  0  0  0
 19 21  1  0  0  0
M  CHG 1  37  -1
M  END
> <minimizedAffinity>
-7.35119

> <CNNscore>
0.3472979069

> <CNNaffinity>
6.4297285080

> <CNN_VS>
2.2330312729

> <CNNaffinity_variance>
0.1413482130

$$$$



 37 40  0  0  0  0  0  0  0  0999 V2000
    6.9018   -0.4994   20.9794 N   0  0  0  0  0  0  0  0  0  0  0  0
    6.3469   -1.6644   21.7441 C   0  0  0  0  0  0  0  0  0  0  0  0
    4.9819   -2.1941   21.4177 O   0  0  0  0  0  0  0  0  0  0  0  0
    7.1568   -2.2998   22.8351 C   0  0  0  0  0  0  0  0  0  0  0  0
    8.0384   -1.4534   23.7047 C   0  0  0  0  0  0  0  0  0  0  0  0
    8.8483   -2.0887   24.7957 N   0  0  0  0  0  0  0  0  0  0  0  0
    8.7766   -3.5705   25.0172 C   0  0  0  0  0  0  0  0  0  0  0  0
    9.5865   -4.2059   26.1082 O   0  0  0  0  0  0  0  0  0  0  0  0
    7.8949   -4.4170   24.1476 C   0  0  0  0  0  0  0  0  0  0  0  0
    7.8232   -5.8988   24.3690 C   0  0  0  0  0  0  0  0  0  0  0  0
    6.9415   -6.7453   23.4994 C   0  0  0  0  0  0  0  0  0  0  0  0
    6.1316   -6.1099   22.4084 C   0  0  0  0  0  0  0  0  0  0  0  0
    5.2499   -6.9564   21.5388 Cl  0  0  0  0  0  0  0  0  0  0  0  0
    6.2034   -4.6281   22.1870 C   0  0  0  0  0  0  0  0  0  0  0  0
    7.0850   -3.7817   23.0565 C   0  0  0  0  0  0  0  0  0  0  0  0
    9.7300   -1.2422   25.6653 C   0  0  0  0  0  0  0  0  0  0  0  0
   11.2208   -1.3912   25.5927 C   0  0  0  0  0  0  0  0  0  0  0  0
   12.0501   -0.3256   24.9395 O   0  0  0  0  0  0  0  0  0  0  0  0
   11.8822   -2.6059   26.1731 N   0  0  0  0  0  0  0  0  0  0  0  0
   13.3731   -2.7550   26.1005 C   0  0  0  0  0  0  0  0  0  0  0  0
   11.3379   -3.3053   26.6018 H   0  0  0  0  0  0  0  0  0  0  0  0
    6.0919    0.1360   19.8884 C   0  0  0  0  0  0  0  0  0  0  0  0
    6.5497    0.0424   18.4630 C   0  0  0  0  0  0  0  0  0  0  0  0
    5.7398    0.6778   17.3719 N   0  0  0  0  0  0  0  0  0  0  0  0
    4.4721    1.4067   17.7063 C   0  0  0  0  0  0  0  0  0  0  0  0
    4.0144    1.5002   19.1317 C   0  0  0  0  0  0  0  0  0  0  0  0
    2.7467    2.2291   19.4661 C   0  0  0  0  0  0  0  0  0  0  0  0
    2.2890    2.3226   20.8914 C   0  0  0  0  0  0  0  0  0  0  0  0
    3.0989    1.6872   21.9825 C   0  0  0  0  0  0  0  0  0  0  0  0
    4.3665    0.9584   21.6481 C   0  0  0  0  0  0  0  0  0  0  0  0
    4.8243    0.8648   20.2227 C   0  0  0  0  0  0  0  0  0  0  0  0
    8.2668    0.0303   21.3058 C   0  0  0  0  0  0  0  0  0  0  0  0
    7.3017    2.4175   21.6518 C   0  0  0  0  0  0  0  0  0  0  0  0
    8.4265    1.4366   21.8024 C   0  0  0  0  0  0  0  0  0  0  0  0
    9.7110    1.8621   22.4497 C   0  0  0  0  0  0  0  0  0  0  0  0
   10.8381    0.8830   22.5946 O   0  0  0  0  0  0  0  0  0  0  0  0
    9.8684    3.2667   22.9521 O   0  0  0  0  0  0  0  0  0  0  0  0
 33 34  2  0  0  0
 34 32  1  0  0  0
 32  1  1  0  0  0
  1  2  1  0  0  0
  2  3  2  0  0  0
  4  2  1  0  0  0
  4  5  1  0  0  0
  5  6  1  0  0  0
  6 16  1  0  0  0
 16 17  1  0  0  0
 17 18  2  0  0  0
 17 19  1  0  0  0
 19 20  1  0  0  0
  6  7  1  0  0  0
  7  8  2  0  0  0
  7  9  1  0  0  0
  9 10  2  0  0  0
 10 11  1  0  0  0
 11 12  2  0  0  0
 12 13  1  0  0  0
 12 14  1  0  0  0
 14 15  2  0  0  0
  1 22  1  0  0  0
 22 23  2  0  0  0
 23 24  1  0  0  0
 24 25  2  0  0  0
 25 26  1  0  0  0
 26 27  2  0  0  0
 27 28  1  0  0  0
 28 29  2  0  0  0
 29 30  1  0  0  0
 30 31  2  0  0  0
 34 35  1  0  0  0
 35 36  2  0  0  0
 35 37  1  0  0  0
 15  4  1  0  0  0
 31 22  1  0  0  0
 15  9  1  0  0  0
 31 26  1  0  0  0
 19 21  1  0  0  0
M  CHG 1  37  -1
M  END
> <minimizedAffinity>
-8.20651

> <CNNscore>
0.2989908457

> <CNNaffinity>
6.5235290527

> <CNN_VS>
1.9504754543

> <CNNaffinity_variance>
0.1297235936

$$$$



 37 40  0  0  0  0  0  0  0  0999 V2000
    5.6421   -4.1949   25.3001 N   0  0  0  0  0  0  0  0  0  0  0  0
    5.9355   -2.7546   25.0015 C   0  0  0  0  0  0  0  0  0  0  0  0
    5.0084   -1.6827   25.4934 O   0  0  0  0  0  0  0  0  0  0  0  0
    7.1559   -2.3859   24.2111 C   0  0  0  0  0  0  0  0  0  0  0  0
    7.0108   -1.7622   22.8548 C   0  0  0  0  0  0  0  0  0  0  0  0
    8.2312   -1.3935   22.0644 N   0  0  0  0  0  0  0  0  0  0  0  0
    9.5967   -1.6487   22.6303 C   0  0  0  0  0  0  0  0  0  0  0  0
   10.8171   -1.2801   21.8399 O   0  0  0  0  0  0  0  0  0  0  0  0
    9.7418   -2.2725   23.9868 C   0  0  0  0  0  0  0  0  0  0  0  0
   11.1072   -2.5277   24.5528 C   0  0  0  0  0  0  0  0  0  0  0  0
   11.2523   -3.1515   25.9091 C   0  0  0  0  0  0  0  0  0  0  0  0
   10.0319   -3.5201   26.6995 C   0  0  0  0  0  0  0  0  0  0  0  0
   10.1770   -4.1439   28.0560 Cl  0  0  0  0  0  0  0  0  0  0  0  0
    8.6664   -3.2649   26.1336 C   0  0  0  0  0  0  0  0  0  0  0  0
    8.5214   -2.6411   24.7772 C   0  0  0  0  0  0  0  0  0  0  0  0
    8.0861   -0.7697   20.7079 C   0  0  0  0  0  0  0  0  0  0  0  0
    6.9932    0.2255   20.4531 C   0  0  0  0  0  0  0  0  0  0  0  0
    7.2244    1.6811   20.7319 O   0  0  0  0  0  0  0  0  0  0  0  0
    5.6690   -0.2349   19.9196 N   0  0  0  0  0  0  0  0  0  0  0  0
    4.5760    0.7604   19.6648 C   0  0  0  0  0  0  0  0  0  0  0  0
    5.5173   -1.1903   19.7367 H   0  0  0  0  0  0  0  0  0  0  0  0
    4.4217   -4.5636   26.0905 C   0  0  0  0  0  0  0  0  0  0  0  0
    3.2715   -5.2517   25.4170 C   0  0  0  0  0  0  0  0  0  0  0  0
    2.0511   -5.6203   26.2074 N   0  0  0  0  0  0  0  0  0  0  0  0
    1.9809   -5.3008   27.6713 C   0  0  0  0  0  0  0  0  0  0  0  0
    3.1310   -4.6127   28.3448 C   0  0  0  0  0  0  0  0  0  0  0  0
    3.0608   -4.2932   29.8088 C   0  0  0  0  0  0  0  0  0  0  0  0
    4.2110   -3.6051   30.4822 C   0  0  0  0  0  0  0  0  0  0  0  0
    5.4314   -3.2365   29.6918 C   0  0  0  0  0  0  0  0  0  0  0  0
    5.5016   -3.5559   28.2279 C   0  0  0  0  0  0  0  0  0  0  0  0
    4.3514   -4.2441   27.5544 C   0  0  0  0  0  0  0  0  0  0  0  0
    6.5691   -5.2668   24.8083 C   0  0  0  0  0  0  0  0  0  0  0  0
    7.1602   -7.1005   23.0653 C   0  0  0  0  0  0  0  0  0  0  0  0
    6.2868   -5.9655   23.5114 C   0  0  0  0  0  0  0  0  0  0  0  0
    5.1311   -5.5291   22.6605 C   0  0  0  0  0  0  0  0  0  0  0  0
    5.2208   -4.2587   21.8681 O   0  0  0  0  0  0  0  0  0  0  0  0
    3.8858   -6.3633   22.6020 O   0  0  0  0  0  0  0  0  0  0  0  0
 33 34  2  0  0  0
 34 32  1  0  0  0
 32  1  1  0  0  0
  1  2  1  0  0  0
  2  3  2  0  0  0
  4  2  1  0  0  0
  4  5  1  0  0  0
  5  6  1  0  0  0
  6 16  1  0  0  0
 16 17  1  0  0  0
 17 18  2  0  0  0
 17 19  1  0  0  0
 19 20  1  0  0  0
  6  7  1  0  0  0
  7  8  2  0  0  0
  7  9  1  0  0  0
  9 10  2  0  0  0
 10 11  1  0  0  0
 11 12  2  0  0  0
 12 13  1  0  0  0
 12 14  1  0  0  0
 14 15  2  0  0  0
  1 22  1  0  0  0
 22 23  2  0  0  0
 23 24  1  0  0  0
 24 25  2  0  0  0
 25 26  1  0  0  0
 26 27  2  0  0  0
 27 28  1  0  0  0
 28 29  2  0  0  0
 29 30  1  0  0  0
 30 31  2  0  0  0
 34 35  1  0  0  0
 35 36  2  0  0  0
 35 37  1  0  0  0
 15  4  1  0  0  0
 31 22  1  0  0  0
 15  9  1  0  0  0
 31 26  1  0  0  0
 19 21  1  0  0  0
M  CHG 1  37  -1
M  END
> <minimizedAffinity>
-7.24341

> <CNNscore>
0.2634642422

> <CNNaffinity>
6.2464189529

> <CNN_VS>
1.6457080841

> <CNNaffinity_variance>
0.1296046823

$$$$



 37 40  0  0  0  0  0  0  0  0999 V2000
    6.9833   -0.3099   22.3032 N   0  0  0  0  0  0  0  0  0  0  0  0
    6.9087    0.6094   23.4861 C   0  0  0  0  0  0  0  0  0  0  0  0
    6.4962    0.0756   24.8259 O   0  0  0  0  0  0  0  0  0  0  0  0
    7.2465    2.0624   23.3293 C   0  0  0  0  0  0  0  0  0  0  0  0
    6.1504    3.0838   23.2575 C   0  0  0  0  0  0  0  0  0  0  0  0
    6.4883    4.5368   23.1007 N   0  0  0  0  0  0  0  0  0  0  0  0
    7.9223    4.9684   23.0157 C   0  0  0  0  0  0  0  0  0  0  0  0
    8.2602    6.4214   22.8589 O   0  0  0  0  0  0  0  0  0  0  0  0
    9.0185    3.9470   23.0875 C   0  0  0  0  0  0  0  0  0  0  0  0
   10.4525    4.3786   23.0026 C   0  0  0  0  0  0  0  0  0  0  0  0
   11.5487    3.3573   23.0744 C   0  0  0  0  0  0  0  0  0  0  0  0
   11.2108    1.9042   23.2312 C   0  0  0  0  0  0  0  0  0  0  0  0
   12.3070    0.8828   23.3030 Cl  0  0  0  0  0  0  0  0  0  0  0  0
    9.7768    1.4726   23.3162 C   0  0  0  0  0  0  0  0  0  0  0  0
    8.6806    2.4940   23.2443 C   0  0  0  0  0  0  0  0  0  0  0  0
    5.3921    5.5582   23.0288 C   0  0  0  0  0  0  0  0  0  0  0  0
    4.0235    5.1581   22.5630 C   0  0  0  0  0  0  0  0  0  0  0  0
    2.8793    5.1312   23.5326 O   0  0  0  0  0  0  0  0  0  0  0  0
    3.7992    4.7850   21.1276 N   0  0  0  0  0  0  0  0  0  0  0  0
    2.4306    4.3848   20.6618 C   0  0  0  0  0  0  0  0  0  0  0  0
    4.5502    4.8026   20.4913 H   0  0  0  0  0  0  0  0  0  0  0  0
    6.6454   -1.7629   22.4600 C   0  0  0  0  0  0  0  0  0  0  0  0
    5.4812   -2.3467   21.7157 C   0  0  0  0  0  0  0  0  0  0  0  0
    5.1433   -3.7998   21.8725 N   0  0  0  0  0  0  0  0  0  0  0  0
    5.9696   -4.6689   22.7736 C   0  0  0  0  0  0  0  0  0  0  0  0
    7.1337   -4.0850   23.5178 C   0  0  0  0  0  0  0  0  0  0  0  0
    7.9600   -4.9542   24.4189 C   0  0  0  0  0  0  0  0  0  0  0  0
    9.1241   -4.3703   25.1631 C   0  0  0  0  0  0  0  0  0  0  0  0
    9.4620   -2.9173   25.0063 C   0  0  0  0  0  0  0  0  0  0  0  0
    8.6358   -2.0482   24.1053 C   0  0  0  0  0  0  0  0  0  0  0  0
    7.4716   -2.6320   23.3610 C   0  0  0  0  0  0  0  0  0  0  0  0
    7.3957    0.2239   20.9633 C   0  0  0  0  0  0  0  0  0  0  0  0
    5.2317    1.4607   20.2305 C   0  0  0  0  0  0  0  0  0  0  0  0
    6.3577    0.5190   19.9216 C   0  0  0  0  0  0  0  0  0  0  0  0
    6.4455   -0.1276   18.5710 C   0  0  0  0  0  0  0  0  0  0  0  0
    7.6711   -0.9036   18.1893 O   0  0  0  0  0  0  0  0  0  0  0  0
    5.3077    0.0017   17.6021 O   0  0  0  0  0  0  0  0  0  0  0  0
 33 34  2  0  0  0
 34 32  1  0  0  0
 32  1  1  0  0  0
  1  2  1  0  0  0
  2  3  2  0  0  0
  4  2  1  0  0  0
  4  5  1  0  0  0
  5  6  1  0  0  0
  6 16  1  0  0  0
 16 17  1  0  0  0
 17 18  2  0  0  0
 17 19  1  0  0  0
 19 20  1  0  0  0
  6  7  1  0  0  0
  7  8  2  0  0  0
  7  9  1  0  0  0
  9 10  2  0  0  0
 10 11  1  0  0  0
 11 12  2  0  0  0
 12 13  1  0  0  0
 12 14  1  0  0  0
 14 15  2  0  0  0
  1 22  1  0  0  0
 22 23  2  0  0  0
 23 24  1  0  0  0
 24 25  2  0  0  0
 25 26  1  0  0  0
 26 27  2  0  0  0
 27 28  1  0  0  0
 28 29  2  0  0  0
 29 30  1  0  0  0
 30 31  2  0  0  0
 34 35  1  0  0  0
 35 36  2  0  0  0
 35 37  1  0  0  0
 15  4  1  0  0  0
 31 22  1  0  0  0
 15  9  1  0  0  0
 31 26  1  0  0  0
 19 21  1  0  0  0
M  CHG 1  37  -1
M  END
> <minimizedAffinity>
-7.23595

> <CNNscore>
0.2364934683

> <CNNaffinity>
6.2362537384

> <CNN_VS>
1.4748332500

> <CNNaffinity_variance>
0.0858076289

$$$$



 37 40  0  0  0  0  0  0  0  0999 V2000
    6.9668   -0.9979   24.7353 N   0  0  0  0  0  0  0  0  0  0  0  0
    7.9290    0.0311   25.2503 C   0  0  0  0  0  0  0  0  0  0  0  0
    7.5558    0.8852   26.4256 O   0  0  0  0  0  0  0  0  0  0  0  0
    9.2646    0.2059   24.5902 C   0  0  0  0  0  0  0  0  0  0  0  0
    9.4757    1.3201   23.6084 C   0  0  0  0  0  0  0  0  0  0  0  0
   10.8113    1.4949   22.9482 N   0  0  0  0  0  0  0  0  0  0  0  0
   11.9356    0.5557   23.2699 C   0  0  0  0  0  0  0  0  0  0  0  0
   13.2712    0.7306   22.6098 O   0  0  0  0  0  0  0  0  0  0  0  0
   11.7245   -0.5585   24.2518 C   0  0  0  0  0  0  0  0  0  0  0  0
   12.8489   -1.4978   24.5735 C   0  0  0  0  0  0  0  0  0  0  0  0
   12.6377   -2.6119   25.5554 C   0  0  0  0  0  0  0  0  0  0  0  0
   11.3022   -2.7868   26.2155 C   0  0  0  0  0  0  0  0  0  0  0  0
   11.0910   -3.9010   27.1974 Cl  0  0  0  0  0  0  0  0  0  0  0  0
   10.1778   -1.8476   25.8938 C   0  0  0  0  0  0  0  0  0  0  0  0
   10.3890   -0.7334   24.9120 C   0  0  0  0  0  0  0  0  0  0  0  0
   11.0224    2.6092   21.9663 C   0  0  0  0  0  0  0  0  0  0  0  0
   11.4094    3.9743   22.4528 C   0  0  0  0  0  0  0  0  0  0  0  0
   12.8554    4.3695   22.5059 O   0  0  0  0  0  0  0  0  0  0  0  0
   10.3504    4.9440   22.8863 N   0  0  0  0  0  0  0  0  0  0  0  0
   10.7373    6.3092   23.3728 C   0  0  0  0  0  0  0  0  0  0  0  0
    9.4013    4.6846   22.8514 H   0  0  0  0  0  0  0  0  0  0  0  0
    5.6313   -1.1728   25.3954 C   0  0  0  0  0  0  0  0  0  0  0  0
    4.4153   -0.5144   24.8139 C   0  0  0  0  0  0  0  0  0  0  0  0
    3.0798   -0.6893   25.4740 N   0  0  0  0  0  0  0  0  0  0  0  0
    2.9602   -1.5225   26.7157 C   0  0  0  0  0  0  0  0  0  0  0  0
    4.1762   -2.1808   27.2971 C   0  0  0  0  0  0  0  0  0  0  0  0
    4.0566   -3.0140   28.5387 C   0  0  0  0  0  0  0  0  0  0  0  0
    5.2726   -3.6723   29.1201 C   0  0  0  0  0  0  0  0  0  0  0  0
    6.6081   -3.4974   28.4600 C   0  0  0  0  0  0  0  0  0  0  0  0
    6.7277   -2.6643   27.2184 C   0  0  0  0  0  0  0  0  0  0  0  0
    5.5117   -2.0059   26.6370 C   0  0  0  0  0  0  0  0  0  0  0  0
    7.3401   -1.8521   23.5600 C   0  0  0  0  0  0  0  0  0  0  0  0
    5.6356   -3.4179   22.3799 C   0  0  0  0  0  0  0  0  0  0  0  0
    6.7223   -3.2086   23.3924 C   0  0  0  0  0  0  0  0  0  0  0  0
    7.1913   -4.3558   24.2373 C   0  0  0  0  0  0  0  0  0  0  0  0
    6.1947   -5.3084   24.8285 O   0  0  0  0  0  0  0  0  0  0  0  0
    8.6568   -4.5504   24.4912 O   0  0  0  0  0  0  0  0  0  0  0  0
 33 34  2  0  0  0
 34 32  1  0  0  0
 32  1  1  0  0  0
  1  2  1  0  0  0
  2  3  2  0  0  0
  4  2  1  0  0  0
  4  5  1  0  0  0
  5  6  1  0  0  0
  6 16  1  0  0  0
 16 17  1  0  0  0
 17 18  2  0  0  0
 17 19  1  0  0  0
 19 20  1  0  0  0
  6  7  1  0  0  0
  7  8  2  0  0  0
  7  9  1  0  0  0
  9 10  2  0  0  0
 10 11  1  0  0  0
 11 12  2  0  0  0
 12 13  1  0  0  0
 12 14  1  0  0  0
 14 15  2  0  0  0
  1 22  1  0  0  0
 22 23  2  0  0  0
 23 24  1  0  0  0
 24 25  2  0  0  0
 25 26  1  0  0  0
 26 27  2  0  0  0
 27 28  1  0  0  0
 28 29  2  0  0  0
 29 30  1  0  0  0
 30 31  2  0  0  0
 34 35  1  0  0  0
 35 36  2  0  0  0
 35 37  1  0  0  0
 15  4  1  0  0  0
 31 22  1  0  0  0
 15  9  1  0  0  0
 31 26  1  0  0  0
 19 21  1  0  0  0
M  CHG 1  37  -1
M  END
> <minimizedAffinity>
-7.21441

> <CNNscore>
0.1913847774

> <CNNaffinity>
6.3478765488

> <CNN_VS>
1.2148869038

> <CNNaffinity_variance>
0.1405260265

$$$$



 37 40  0  0  0  0  0  0  0  0999 V2000
    6.5952    1.8685   22.4159 N   0  0  0  0  0  0  0  0  0  0  0  0
    7.2644    1.7074   23.7486 C   0  0  0  0  0  0  0  0  0  0  0  0
    6.5031    1.9918   25.0095 O   0  0  0  0  0  0  0  0  0  0  0  0
    8.6950    1.2620   23.8206 C   0  0  0  0  0  0  0  0  0  0  0  0
    9.7754    2.1088   23.2162 C   0  0  0  0  0  0  0  0  0  0  0  0
   11.2060    1.6634   23.2882 N   0  0  0  0  0  0  0  0  0  0  0  0
   11.5560    0.3713   23.9647 C   0  0  0  0  0  0  0  0  0  0  0  0
   12.9866   -0.0741   24.0367 O   0  0  0  0  0  0  0  0  0  0  0  0
   10.4755   -0.4756   24.5692 C   0  0  0  0  0  0  0  0  0  0  0  0
   10.8256   -1.7678   25.2457 C   0  0  0  0  0  0  0  0  0  0  0  0
    9.7451   -2.6146   25.8501 C   0  0  0  0  0  0  0  0  0  0  0  0
    8.3145   -2.1692   25.7781 C   0  0  0  0  0  0  0  0  0  0  0  0
    7.2340   -3.0161   26.3826 Cl  0  0  0  0  0  0  0  0  0  0  0  0
    7.9645   -0.8770   25.1016 C   0  0  0  0  0  0  0  0  0  0  0  0
    9.0450   -0.0302   24.4972 C   0  0  0  0  0  0  0  0  0  0  0  0
   12.2865    2.5103   22.6837 C   0  0  0  0  0  0  0  0  0  0  0  0
   12.1106    3.9970   22.5909 C   0  0  0  0  0  0  0  0  0  0  0  0
   13.0494    4.8125   21.7522 O   0  0  0  0  0  0  0  0  0  0  0  0
   10.9958    4.6683   23.3370 N   0  0  0  0  0  0  0  0  0  0  0  0
   10.8198    6.1551   23.2443 C   0  0  0  0  0  0  0  0  0  0  0  0
   10.3796    4.1330   23.8875 H   0  0  0  0  0  0  0  0  0  0  0  0
    5.1647    2.3138   22.3439 C   0  0  0  0  0  0  0  0  0  0  0  0
    4.0587    1.3161   22.5212 C   0  0  0  0  0  0  0  0  0  0  0  0
    2.6281    1.7615   22.4492 N   0  0  0  0  0  0  0  0  0  0  0  0
    2.3036    3.2046   22.1999 C   0  0  0  0  0  0  0  0  0  0  0  0
    3.4096    4.2023   22.0226 C   0  0  0  0  0  0  0  0  0  0  0  0
    3.0850    5.6454   21.7734 C   0  0  0  0  0  0  0  0  0  0  0  0
    4.1910    6.6431   21.5961 C   0  0  0  0  0  0  0  0  0  0  0  0
    5.6215    6.1977   21.6681 C   0  0  0  0  0  0  0  0  0  0  0  0
    5.9461    4.7547   21.9174 C   0  0  0  0  0  0  0  0  0  0  0  0
    4.8401    3.7569   22.0947 C   0  0  0  0  0  0  0  0  0  0  0  0
    7.3566    1.5841   21.1551 C   0  0  0  0  0  0  0  0  0  0  0  0
    8.1638   -0.8819   21.0250 C   0  0  0  0  0  0  0  0  0  0  0  0
    7.2833    0.2248   20.5252 C   0  0  0  0  0  0  0  0  0  0  0  0
    6.3295   -0.0278   19.3954 C   0  0  0  0  0  0  0  0  0  0  0  0
    4.9898   -0.6447   19.6685 O   0  0  0  0  0  0  0  0  0  0  0  0
    6.7155    0.3365   17.9923 O   0  0  0  0  0  0  0  0  0  0  0  0
 33 34  2  0  0  0
 34 32  1  0  0  0
 32  1  1  0  0  0
  1  2  1  0  0  0
  2  3  2  0  0  0
  4  2  1  0  0  0
  4  5  1  0  0  0
  5  6  1  0  0  0
  6 16  1  0  0  0
 16 17  1  0  0  0
 17 18  2  0  0  0
 17 19  1  0  0  0
 19 20  1  0  0  0
  6  7  1  0  0  0
  7  8  2  0  0  0
  7  9  1  0  0  0
  9 10  2  0  0  0
 10 11  1  0  0  0
 11 12  2  0  0  0
 12 13  1  0  0  0
 12 14  1  0  0  0
 14 15  2  0  0  0
  1 22  1  0  0  0
 22 23  2  0  0  0
 23 24  1  0  0  0
 24 25  2  0  0  0
 25 26  1  0  0  0
 26 27  2  0  0  0
 27 28  1  0  0  0
 28 29  2  0  0  0
 29 30  1  0  0  0
 30 31  2  0  0  0
 34 35  1  0  0  0
 35 36  2  0  0  0
 35 37  1  0  0  0
 15  4  1  0  0  0
 31 22  1  0  0  0
 15  9  1  0  0  0
 31 26  1  0  0  0
 19 21  1  0  0  0
M  CHG 1  37  -1
M  END
> <minimizedAffinity>
-8.04957

> <CNNscore>
0.1723247617

> <CNNaffinity>
6.1721792221

> <CNN_VS>
1.0636192560

> <CNNaffinity_variance>
0.2941576838

$$$$



 37 40  0  0  0  0  0  0  0  0999 V2000
    6.3373    0.7041   22.9470 N   0  0  0  0  0  0  0  0  0  0  0  0
    7.2291    1.2380   24.0285 C   0  0  0  0  0  0  0  0  0  0  0  0
    6.6547    2.0887   25.1224 O   0  0  0  0  0  0  0  0  0  0  0  0
    8.6952    0.9213   24.0161 C   0  0  0  0  0  0  0  0  0  0  0  0
    9.6492    1.8142   23.2795 C   0  0  0  0  0  0  0  0  0  0  0  0
   11.1153    1.4975   23.2672 N   0  0  0  0  0  0  0  0  0  0  0  0
   11.6275    0.2880   23.9914 C   0  0  0  0  0  0  0  0  0  0  0  0
   13.0936   -0.0287   23.9791 O   0  0  0  0  0  0  0  0  0  0  0  0
   10.6735   -0.6050   24.7281 C   0  0  0  0  0  0  0  0  0  0  0  0
   11.1857   -1.8145   25.4524 C   0  0  0  0  0  0  0  0  0  0  0  0
   10.2317   -2.7074   26.1890 C   0  0  0  0  0  0  0  0  0  0  0  0
    8.7656   -2.3907   26.2014 C   0  0  0  0  0  0  0  0  0  0  0  0
    7.8116   -3.2837   26.9381 Cl  0  0  0  0  0  0  0  0  0  0  0  0
    8.2534   -1.1812   25.4771 C   0  0  0  0  0  0  0  0  0  0  0  0
    9.2074   -0.2883   24.7405 C   0  0  0  0  0  0  0  0  0  0  0  0
   12.0693    2.3905   22.5305 C   0  0  0  0  0  0  0  0  0  0  0  0
   11.8647    3.8764   22.5394 C   0  0  0  0  0  0  0  0  0  0  0  0
   12.8666    4.7755   21.8777 O   0  0  0  0  0  0  0  0  0  0  0  0
   10.6582    4.4632   23.2101 N   0  0  0  0  0  0  0  0  0  0  0  0
   10.4535    5.9492   23.2191 C   0  0  0  0  0  0  0  0  0  0  0  0
   10.0006    3.8731   23.6444 H   0  0  0  0  0  0  0  0  0  0  0  0
    4.8712    1.0208   22.9594 C   0  0  0  0  0  0  0  0  0  0  0  0
    4.0889    0.9020   24.2338 C   0  0  0  0  0  0  0  0  0  0  0  0
    2.6228    1.2187   24.2462 N   0  0  0  0  0  0  0  0  0  0  0  0
    1.9389    1.6541   22.9841 C   0  0  0  0  0  0  0  0  0  0  0  0
    2.7211    1.7728   21.7097 C   0  0  0  0  0  0  0  0  0  0  0  0
    2.0372    2.2082   20.4477 C   0  0  0  0  0  0  0  0  0  0  0  0
    2.8194    2.3269   19.1733 C   0  0  0  0  0  0  0  0  0  0  0  0
    4.2856    2.0102   19.1610 C   0  0  0  0  0  0  0  0  0  0  0  0
    4.9695    1.5749   20.4229 C   0  0  0  0  0  0  0  0  0  0  0  0
    4.1873    1.4561   21.6974 C   0  0  0  0  0  0  0  0  0  0  0  0
    6.9117   -0.1466   21.8531 C   0  0  0  0  0  0  0  0  0  0  0  0
    8.5629   -2.1424   22.0537 C   0  0  0  0  0  0  0  0  0  0  0  0
    7.1625   -1.6061   22.0914 C   0  0  0  0  0  0  0  0  0  0  0  0
    6.0130   -2.5294   22.3672 C   0  0  0  0  0  0  0  0  0  0  0  0
    4.9867   -2.7878   21.3042 O   0  0  0  0  0  0  0  0  0  0  0  0
    5.8897   -3.1943   23.7062 O   0  0  0  0  0  0  0  0  0  0  0  0
 33 34  2  0  0  0
 34 32  1  0  0  0
 32  1  1  0  0  0
  1  2  1  0  0  0
  2  3  2  0  0  0
  4  2  1  0  0  0
  4  5  1  0  0  0
  5  6  1  0  0  0
  6 16  1  0  0  0
 16 17  1  0  0  0
 17 18  2  0  0  0
 17 19  1  0  0  0
 19 20  1  0  0  0
  6  7  1  0  0  0
  7  8  2  0  0  0
  7  9  1  0  0  0
  9 10  2  0  0  0
 10 11  1  0  0  0
 11 12  2  0  0  0
 12 13  1  0  0  0
 12 14  1  0  0  0
 14 15  2  0  0  0
  1 22  1  0  0  0
 22 23  2  0  0  0
 23 24  1  0  0  0
 24 25  2  0  0  0
 25 26  1  0  0  0
 26 27  2  0  0  0
 27 28  1  0  0  0
 28 29  2  0  0  0
 29 30  1  0  0  0
 30 31  2  0  0  0
 34 35  1  0  0  0
 35 36  2  0  0  0
 35 37  1  0  0  0
 15  4  1  0  0  0
 31 22  1  0  0  0
 15  9  1  0  0  0
 31 26  1  0  0  0
 19 21  1  0  0  0
M  CHG 1  37  -1
M  END
> <minimizedAffinity>
-7.59930

> <CNNscore>
0.1651975960

> <CNNaffinity>
6.2820596695

> <CNN_VS>
1.0377811193

> <CNNaffinity_variance>
0.1480690539

$$$$
