


 40 44  0  0  0  0  0  0  0  0999 V2000
   -7.9235   -1.5820  -23.3414 N   0  0  0  0  0  0  0  0  0  0  0  0
   -8.1743   -0.1140  -23.5202 C   0  0  0  0  0  0  0  0  0  0  0  0
   -9.5762    0.4178  -23.4797 C   0  0  0  0  0  0  0  0  0  0  0  0
  -10.9161    1.0918  -23.4634 C   0  0  0  0  0  0  0  0  0  0  0  0
  -12.0931    0.8202  -23.3320 O   0  0  0  0  0  0  0  0  0  0  0  0
  -10.6991    2.5601  -23.6799 N   0  0  0  0  0  0  0  0  0  0  0  0
   -9.2250    2.7937  -23.8299 C   0  0  0  0  0  0  0  0  0  0  0  0
   -8.5311    1.4696  -23.7062 C   0  0  0  0  0  0  0  0  0  0  0  0
  -10.7275   -0.5185  -23.2603 C   0  0  0  0  0  0  0  0  0  0  0  0
  -12.1294    0.0133  -23.2197 C   0  0  0  0  0  0  0  0  0  0  0  0
  -13.2806   -0.9229  -23.0003 C   0  0  0  0  0  0  0  0  0  0  0  0
  -14.6827   -0.3911  -22.9598 F   0  0  0  0  0  0  0  0  0  0  0  0
  -13.0299   -2.3909  -22.8215 C   0  0  0  0  0  0  0  0  0  0  0  0
  -11.6279   -2.9227  -22.8620 C   0  0  0  0  0  0  0  0  0  0  0  0
  -10.4767   -1.9865  -23.0814 C   0  0  0  0  0  0  0  0  0  0  0  0
   -9.0747   -2.5183  -23.1220 C   0  0  0  0  0  0  0  0  0  0  0  0
   -8.8239   -3.9863  -22.9431 O   0  0  0  0  0  0  0  0  0  0  0  0
  -11.7685    3.6105  -23.7363 C   0  0  0  0  0  0  0  0  0  0  0  0
  -12.6302    3.8689  -22.5360 C   0  0  0  0  0  0  0  0  0  0  0  0
  -13.6995    4.9192  -22.5925 N   0  0  0  0  0  0  0  0  0  0  0  0
  -13.9071    5.7113  -23.8493 C   0  0  0  0  0  0  0  0  0  0  0  0
  -13.0454    5.4530  -25.0496 C   0  0  0  0  0  0  0  0  0  0  0  0
  -13.2530    6.2451  -26.3064 C   0  0  0  0  0  0  0  0  0  0  0  0
  -12.3912    5.9867  -27.5067 C   0  0  0  0  0  0  0  0  0  0  0  0
  -11.3219    4.9363  -27.4502 C   0  0  0  0  0  0  0  0  0  0  0  0
  -11.1143    4.1443  -26.1934 C   0  0  0  0  0  0  0  0  0  0  0  0
  -11.9761    4.4026  -24.9931 C   0  0  0  0  0  0  0  0  0  0  0  0
   -6.5215   -2.1138  -23.3819 C   0  0  0  0  0  0  0  0  0  0  0  0
   -5.5171   -5.5805  -21.7317 C   0  0  0  0  0  0  0  0  0  0  0  0
   -5.9659   -4.5709  -22.7462 N   0  0  0  0  0  0  0  0  0  0  0  0
   -6.0727   -3.1235  -22.3674 C   0  0  0  0  0  0  0  0  0  0  0  0
   -5.7306   -2.6856  -20.9740 O   0  0  0  0  0  0  0  0  0  0  0  0
   -6.1904   -4.8583  -23.6606 H   0  0  0  0  0  0  0  0  0  0  0  0
   -7.0516    1.2381  -23.7937 C   0  0  0  0  0  0  0  0  0  0  0  0
   -6.0977    2.2999  -23.3327 S   0  0  0  0  0  0  0  0  0  0  0  0
   -6.4121    1.9627  -21.9053 O   0  0  0  0  0  0  0  0  0  0  0  0
   -5.7833    2.6370  -24.7602 O   0  0  0  0  0  0  0  0  0  0  0  0
   -5.1438    3.3617  -22.8718 N   0  0  0  0  0  0  0  0  0  0  0  0
   -5.4117    4.8020  -23.1942 C   0  0  0  0  0  0  0  0  0  0  0  0
   -3.9218    2.9834  -22.0885 C   0  0  0  0  0  0  0  0  0  0  0  0
 29 30  1  0  0  0
 30 31  1  0  0  0
 31 32  2  0  0  0
 31 28  1  0  0  0
 28  1  1  0  0  0
  1  2  1  0  0  0
  3  2  1  0  0  0
  3  4  1  0  0  0
  4  5  2  0  0  0
  4  6  1  0  0  0
  6 18  1  0  0  0
 18 19  2  0  0  0
 19 20  1  0  0  0
 20 21  2  0  0  0
 21 22  1  0  0  0
 22 23  2  0  0  0
 23 24  1  0  0  0
 24 25  2  0  0  0
 25 26  1  0  0  0
 26 27  2  0  0  0
  6  7  1  0  0  0
  7  8  1  0  0  0
  8 34  1  0  0  0
 34 35  1  0  0  0
 35 36  2  0  0  0
 35 37  2  0  0  0
 35 38  1  0  0  0
 38 39  1  0  0  0
 38 40  1  0  0  0
  3  9  1  0  0  0
  9 10  2  0  0  0
 10 11  1  0  0  0
 11 12  1  0  0  0
 11 13  2  0  0  0
 13 14  1  0  0  0
 14 15  2  0  0  0
 15 16  1  0  0  0
 16 17  2  0  0  0
 16  1  1  0  0  0
  8  3  1  0  0  0
 15  9  1  0  0  0
 27 18  1  0  0  0
 27 22  1  0  0  0
 30 33  1  0  0  0
M  END
> <minimizedAffinity>
-7.37002

> <CNNscore>
0.7455698848

> <CNNaffinity>
7.0629286766

> <CNN_VS>
5.2659068108

> <CNNaffinity_variance>
0.0563860908

$$$$



 40 44  0  0  0  0  0  0  0  0999 V2000
   -5.9743   -4.1881  -21.6942 N   0  0  0  0  0  0  0  0  0  0  0  0
   -6.4821   -3.6373  -22.9938 C   0  0  0  0  0  0  0  0  0  0  0  0
   -6.5008   -2.1552  -23.2240 C   0  0  0  0  0  0  0  0  0  0  0  0
   -6.5795   -0.7042  -23.5960 C   0  0  0  0  0  0  0  0  0  0  0  0
   -6.3313    0.3906  -23.1312 O   0  0  0  0  0  0  0  0  0  0  0  0
   -7.1464   -0.6110  -24.9816 N   0  0  0  0  0  0  0  0  0  0  0  0
   -7.4181   -2.0044  -25.4660 C   0  0  0  0  0  0  0  0  0  0  0  0
   -7.0190   -2.9587  -24.3798 C   0  0  0  0  0  0  0  0  0  0  0  0
   -6.0116   -1.2238  -22.1547 C   0  0  0  0  0  0  0  0  0  0  0  0
   -6.0302    0.2582  -22.3850 C   0  0  0  0  0  0  0  0  0  0  0  0
   -5.5410    1.1895  -21.3158 C   0  0  0  0  0  0  0  0  0  0  0  0
   -5.5597    2.6717  -21.5460 F   0  0  0  0  0  0  0  0  0  0  0  0
   -5.0332    0.6388  -20.0162 C   0  0  0  0  0  0  0  0  0  0  0  0
   -5.0145   -0.8433  -19.7860 C   0  0  0  0  0  0  0  0  0  0  0  0
   -5.5037   -1.7746  -20.8552 C   0  0  0  0  0  0  0  0  0  0  0  0
   -5.4851   -3.2568  -20.6250 C   0  0  0  0  0  0  0  0  0  0  0  0
   -4.9773   -3.8075  -19.3255 O   0  0  0  0  0  0  0  0  0  0  0  0
   -7.3976    0.6537  -25.7482 C   0  0  0  0  0  0  0  0  0  0  0  0
   -8.7035    1.3759  -25.5965 C   0  0  0  0  0  0  0  0  0  0  0  0
   -8.9546    2.6405  -26.3631 N   0  0  0  0  0  0  0  0  0  0  0  0
   -7.8999    3.1829  -27.2814 C   0  0  0  0  0  0  0  0  0  0  0  0
   -6.5939    2.4607  -27.4330 C   0  0  0  0  0  0  0  0  0  0  0  0
   -5.5391    3.0031  -28.3514 C   0  0  0  0  0  0  0  0  0  0  0  0
   -4.2332    2.2808  -28.5030 C   0  0  0  0  0  0  0  0  0  0  0  0
   -3.9821    1.0162  -27.7364 C   0  0  0  0  0  0  0  0  0  0  0  0
   -5.0369    0.4738  -26.8181 C   0  0  0  0  0  0  0  0  0  0  0  0
   -6.3428    1.1960  -26.6665 C   0  0  0  0  0  0  0  0  0  0  0  0
   -5.9556   -5.6702  -21.4640 C   0  0  0  0  0  0  0  0  0  0  0  0
   -3.3948   -7.2492  -24.0522 C   0  0  0  0  0  0  0  0  0  0  0  0
   -3.9820   -6.3367  -23.0166 N   0  0  0  0  0  0  0  0  0  0  0  0
   -5.3684   -6.5827  -22.4996 C   0  0  0  0  0  0  0  0  0  0  0  0
   -6.1677   -7.7414  -23.0182 O   0  0  0  0  0  0  0  0  0  0  0  0
   -3.4575   -5.5763  -22.6762 H   0  0  0  0  0  0  0  0  0  0  0  0
   -7.1205   -4.4541  -24.4389 C   0  0  0  0  0  0  0  0  0  0  0  0
   -8.0234   -5.1055  -25.4440 S   0  0  0  0  0  0  0  0  0  0  0  0
   -6.8319   -5.4668  -26.2804 O   0  0  0  0  0  0  0  0  0  0  0  0
   -9.2151   -4.7441  -24.6076 O   0  0  0  0  0  0  0  0  0  0  0  0
   -8.9265   -5.7568  -26.4491 N   0  0  0  0  0  0  0  0  0  0  0  0
   -9.4702   -4.9589  -27.5971 C   0  0  0  0  0  0  0  0  0  0  0  0
   -9.2859   -7.2061  -26.3062 C   0  0  0  0  0  0  0  0  0  0  0  0
 29 30  1  0  0  0
 30 31  1  0  0  0
 31 32  2  0  0  0
 31 28  1  0  0  0
 28  1  1  0  0  0
  1  2  1  0  0  0
  3  2  1  0  0  0
  3  4  1  0  0  0
  4  5  2  0  0  0
  4  6  1  0  0  0
  6 18  1  0  0  0
 18 19  2  0  0  0
 19 20  1  0  0  0
 20 21  2  0  0  0
 21 22  1  0  0  0
 22 23  2  0  0  0
 23 24  1  0  0  0
 24 25  2  0  0  0
 25 26  1  0  0  0
 26 27  2  0  0  0
  6  7  1  0  0  0
  7  8  1  0  0  0
  8 34  1  0  0  0
 34 35  1  0  0  0
 35 36  2  0  0  0
 35 37  2  0  0  0
 35 38  1  0  0  0
 38 39  1  0  0  0
 38 40  1  0  0  0
  3  9  1  0  0  0
  9 10  2  0  0  0
 10 11  1  0  0  0
 11 12  1  0  0  0
 11 13  2  0  0  0
 13 14  1  0  0  0
 14 15  2  0  0  0
 15 16  1  0  0  0
 16 17  2  0  0  0
 16  1  1  0  0  0
  8  3  1  0  0  0
 15  9  1  0  0  0
 27 18  1  0  0  0
 27 22  1  0  0  0
 30 33  1  0  0  0
M  END
> <minimizedAffinity>
-7.05688

> <CNNscore>
0.4728913307

> <CNNaffinity>
6.7407159805

> <CNN_VS>
3.1876261234

> <CNNaffinity_variance>
0.1245823875

$$$$



 40 44  0  0  0  0  0  0  0  0999 V2000
   -9.5911    2.5059  -24.5074 N   0  0  0  0  0  0  0  0  0  0  0  0
   -8.6284    1.3612  -24.6201 C   0  0  0  0  0  0  0  0  0  0  0  0
   -9.0802   -0.0330  -24.3005 C   0  0  0  0  0  0  0  0  0  0  0  0
   -9.3860   -1.4736  -24.0156 C   0  0  0  0  0  0  0  0  0  0  0  0
  -10.3111   -2.1757  -23.6586 O   0  0  0  0  0  0  0  0  0  0  0  0
   -8.1374   -2.2691  -24.2568 N   0  0  0  0  0  0  0  0  0  0  0  0
   -7.0598   -1.3201  -24.6908 C   0  0  0  0  0  0  0  0  0  0  0  0
   -7.6425    0.0618  -24.7178 C   0  0  0  0  0  0  0  0  0  0  0  0
  -10.4948   -0.2825  -23.8683 C   0  0  0  0  0  0  0  0  0  0  0  0
  -10.9466   -1.6766  -23.5488 C   0  0  0  0  0  0  0  0  0  0  0  0
  -12.3611   -1.9260  -23.1167 C   0  0  0  0  0  0  0  0  0  0  0  0
  -12.8130   -3.3203  -22.7971 F   0  0  0  0  0  0  0  0  0  0  0  0
  -13.3239   -0.7813  -23.0040 C   0  0  0  0  0  0  0  0  0  0  0  0
  -12.8721    0.6129  -23.3236 C   0  0  0  0  0  0  0  0  0  0  0  0
  -11.4575    0.8623  -23.7557 C   0  0  0  0  0  0  0  0  0  0  0  0
  -11.0057    2.2565  -24.0753 C   0  0  0  0  0  0  0  0  0  0  0  0
  -11.9684    3.4012  -23.9627 O   0  0  0  0  0  0  0  0  0  0  0  0
   -7.9919   -3.7529  -24.0928 C   0  0  0  0  0  0  0  0  0  0  0  0
   -7.3906   -4.3135  -22.8381 C   0  0  0  0  0  0  0  0  0  0  0  0
   -7.2451   -5.7974  -22.6741 N   0  0  0  0  0  0  0  0  0  0  0  0
   -7.7010   -6.7207  -23.7648 C   0  0  0  0  0  0  0  0  0  0  0  0
   -8.3023   -6.1602  -25.0195 C   0  0  0  0  0  0  0  0  0  0  0  0
   -8.7581   -7.0836  -26.1103 C   0  0  0  0  0  0  0  0  0  0  0  0
   -9.3594   -6.5229  -27.3649 C   0  0  0  0  0  0  0  0  0  0  0  0
   -9.5049   -5.0390  -27.5289 C   0  0  0  0  0  0  0  0  0  0  0  0
   -9.0491   -4.1157  -26.4382 C   0  0  0  0  0  0  0  0  0  0  0  0
   -8.4478   -4.6763  -25.1835 C   0  0  0  0  0  0  0  0  0  0  0  0
   -9.1393    3.9001  -24.8270 C   0  0  0  0  0  0  0  0  0  0  0  0
   -7.0299    5.4266  -21.8319 C   0  0  0  0  0  0  0  0  0  0  0  0
   -7.4659    4.5082  -22.9349 N   0  0  0  0  0  0  0  0  0  0  0  0
   -8.7032    4.8185  -23.7241 C   0  0  0  0  0  0  0  0  0  0  0  0
   -9.5044    6.0472  -23.4104 O   0  0  0  0  0  0  0  0  0  0  0  0
   -6.9401    3.7018  -23.1408 H   0  0  0  0  0  0  0  0  0  0  0  0
   -6.9152    1.3181  -25.0958 C   0  0  0  0  0  0  0  0  0  0  0  0
   -5.6006    1.6461  -24.4524 S   0  0  0  0  0  0  0  0  0  0  0  0
   -5.5741    2.9598  -25.1759 O   0  0  0  0  0  0  0  0  0  0  0  0
   -5.6269    0.3324  -23.7288 O   0  0  0  0  0  0  0  0  0  0  0  0
   -4.2859    1.9741  -23.8089 N   0  0  0  0  0  0  0  0  0  0  0  0
   -3.1976    0.9429  -23.7582 C   0  0  0  0  0  0  0  0  0  0  0  0
   -4.0594    3.3332  -23.2161 C   0  0  0  0  0  0  0  0  0  0  0  0
 29 30  1  0  0  0
 30 31  1  0  0  0
 31 32  2  0  0  0
 31 28  1  0  0  0
 28  1  1  0  0  0
  1  2  1  0  0  0
  3  2  1  0  0  0
  3  4  1  0  0  0
  4  5  2  0  0  0
  4  6  1  0  0  0
  6 18  1  0  0  0
 18 19  2  0  0  0
 19 20  1  0  0  0
 20 21  2  0  0  0
 21 22  1  0  0  0
 22 23  2  0  0  0
 23 24  1  0  0  0
 24 25  2  0  0  0
 25 26  1  0  0  0
 26 27  2  0  0  0
  6  7  1  0  0  0
  7  8  1  0  0  0
  8 34  1  0  0  0
 34 35  1  0  0  0
 35 36  2  0  0  0
 35 37  2  0  0  0
 35 38  1  0  0  0
 38 39  1  0  0  0
 38 40  1  0  0  0
  3  9  1  0  0  0
  9 10  2  0  0  0
 10 11  1  0  0  0
 11 12  1  0  0  0
 11 13  2  0  0  0
 13 14  1  0  0  0
 14 15  2  0  0  0
 15 16  1  0  0  0
 16 17  2  0  0  0
 16  1  1  0  0  0
  8  3  1  0  0  0
 15  9  1  0  0  0
 27 18  1  0  0  0
 27 22  1  0  0  0
 30 33  1  0  0  0
M  END
> <minimizedAffinity>
-7.23505

> <CNNscore>
0.4100071788

> <CNNaffinity>
6.6770172119

> <CNN_VS>
2.7376248837

> <CNNaffinity_variance>
0.0267623272

$$$$



 40 44  0  0  0  0  0  0  0  0999 V2000
   -7.2961   -0.7946  -23.1120 N   0  0  0  0  0  0  0  0  0  0  0  0
   -7.6648    0.6421  -23.3358 C   0  0  0  0  0  0  0  0  0  0  0  0
   -9.1083    1.0429  -23.4112 C   0  0  0  0  0  0  0  0  0  0  0  0
  -10.5012    1.5908  -23.5087 C   0  0  0  0  0  0  0  0  0  0  0  0
  -11.6553    1.2134  -23.4621 O   0  0  0  0  0  0  0  0  0  0  0  0
  -10.4027    3.0704  -23.7346 N   0  0  0  0  0  0  0  0  0  0  0  0
   -8.9488    3.4370  -23.7767 C   0  0  0  0  0  0  0  0  0  0  0  0
   -8.1488    2.1840  -23.5769 C   0  0  0  0  0  0  0  0  0  0  0  0
  -10.1831    0.0071  -23.2629 C   0  0  0  0  0  0  0  0  0  0  0  0
  -11.6265    0.4079  -23.3383 C   0  0  0  0  0  0  0  0  0  0  0  0
  -12.7012   -0.6279  -23.1900 C   0  0  0  0  0  0  0  0  0  0  0  0
  -14.1448   -0.2271  -23.2654 F   0  0  0  0  0  0  0  0  0  0  0  0
  -12.3325   -2.0645  -22.9662 C   0  0  0  0  0  0  0  0  0  0  0  0
  -10.8890   -2.4654  -22.8907 C   0  0  0  0  0  0  0  0  0  0  0  0
   -9.8143   -1.4296  -23.0391 C   0  0  0  0  0  0  0  0  0  0  0  0
   -8.3708   -1.8304  -22.9636 C   0  0  0  0  0  0  0  0  0  0  0  0
   -8.0021   -3.2670  -22.7398 O   0  0  0  0  0  0  0  0  0  0  0  0
  -11.5556    4.0171  -23.8909 C   0  0  0  0  0  0  0  0  0  0  0  0
  -12.3848    4.3926  -22.6987 C   0  0  0  0  0  0  0  0  0  0  0  0
  -13.5377    5.3393  -22.8550 N   0  0  0  0  0  0  0  0  0  0  0  0
  -13.8614    5.9106  -24.2036 C   0  0  0  0  0  0  0  0  0  0  0  0
  -13.0322    5.5352  -25.3959 C   0  0  0  0  0  0  0  0  0  0  0  0
  -13.3560    6.1066  -26.7446 C   0  0  0  0  0  0  0  0  0  0  0  0
  -12.5268    5.7311  -27.9368 C   0  0  0  0  0  0  0  0  0  0  0  0
  -11.3738    4.7843  -27.7805 C   0  0  0  0  0  0  0  0  0  0  0  0
  -11.0501    4.2130  -26.4318 C   0  0  0  0  0  0  0  0  0  0  0  0
  -11.8793    4.5885  -25.2396 C   0  0  0  0  0  0  0  0  0  0  0  0
   -5.8525   -1.1954  -23.0365 C   0  0  0  0  0  0  0  0  0  0  0  0
   -4.2352   -2.7129  -26.3276 C   0  0  0  0  0  0  0  0  0  0  0  0
   -5.0474   -2.5947  -25.0721 N   0  0  0  0  0  0  0  0  0  0  0  0
   -5.0404   -1.3135  -24.2921 C   0  0  0  0  0  0  0  0  0  0  0  0
   -4.2212   -0.1504  -24.7677 O   0  0  0  0  0  0  0  0  0  0  0  0
   -5.5850   -3.3581  -24.7599 H   0  0  0  0  0  0  0  0  0  0  0  0
   -6.6521    2.0887  -23.5477 C   0  0  0  0  0  0  0  0  0  0  0  0
   -5.8256    3.3250  -23.3520 S   0  0  0  0  0  0  0  0  0  0  0  0
   -5.5952    3.4053  -24.8320 O   0  0  0  0  0  0  0  0  0  0  0  0
   -6.0559    3.2447  -21.8719 O   0  0  0  0  0  0  0  0  0  0  0  0
   -4.9990    4.5612  -23.1562 N   0  0  0  0  0  0  0  0  0  0  0  0
   -3.5094    4.4532  -23.0157 C   0  0  0  0  0  0  0  0  0  0  0  0
   -5.6619    5.9057  -23.1009 C   0  0  0  0  0  0  0  0  0  0  0  0
 29 30  1  0  0  0
 30 31  1  0  0  0
 31 32  2  0  0  0
 31 28  1  0  0  0
 28  1  1  0  0  0
  1  2  1  0  0  0
  3  2  1  0  0  0
  3  4  1  0  0  0
  4  5  2  0  0  0
  4  6  1  0  0  0
  6 18  1  0  0  0
 18 19  2  0  0  0
 19 20  1  0  0  0
 20 21  2  0  0  0
 21 22  1  0  0  0
 22 23  2  0  0  0
 23 24  1  0  0  0
 24 25  2  0  0  0
 25 26  1  0  0  0
 26 27  2  0  0  0
  6  7  1  0  0  0
  7  8  1  0  0  0
  8 34  1  0  0  0
 34 35  1  0  0  0
 35 36  2  0  0  0
 35 37  2  0  0  0
 35 38  1  0  0  0
 38 39  1  0  0  0
 38 40  1  0  0  0
  3  9  1  0  0  0
  9 10  2  0  0  0
 10 11  1  0  0  0
 11 12  1  0  0  0
 11 13  2  0  0  0
 13 14  1  0  0  0
 14 15  2  0  0  0
 15 16  1  0  0  0
 16 17  2  0  0  0
 16  1  1  0  0  0
  8  3  1  0  0  0
 15  9  1  0  0  0
 27 18  1  0  0  0
 27 22  1  0  0  0
 30 33  1  0  0  0
M  END
> <minimizedAffinity>
-7.01836

> <CNNscore>
0.3561007977

> <CNNaffinity>
6.5451545715

> <CNN_VS>
2.3307347298

> <CNNaffinity_variance>
0.0188802835

$$$$



 40 44  0  0  0  0  0  0  0  0999 V2000
   -6.0465   -4.1328  -21.6571 N   0  0  0  0  0  0  0  0  0  0  0  0
   -6.6227   -3.5854  -22.9292 C   0  0  0  0  0  0  0  0  0  0  0  0
   -6.6526   -2.1040  -23.1625 C   0  0  0  0  0  0  0  0  0  0  0  0
   -6.7501   -0.6540  -23.5341 C   0  0  0  0  0  0  0  0  0  0  0  0
   -6.4767    0.4420  -23.0864 O   0  0  0  0  0  0  0  0  0  0  0  0
   -7.3901   -0.5643  -24.8877 N   0  0  0  0  0  0  0  0  0  0  0  0
   -7.6882   -1.9589  -25.3528 C   0  0  0  0  0  0  0  0  0  0  0  0
   -7.2324   -2.9104  -24.2866 C   0  0  0  0  0  0  0  0  0  0  0  0
   -6.1064   -1.1699  -22.1237 C   0  0  0  0  0  0  0  0  0  0  0  0
   -6.1363    0.3115  -22.3570 C   0  0  0  0  0  0  0  0  0  0  0  0
   -5.5901    1.2455  -21.3181 C   0  0  0  0  0  0  0  0  0  0  0  0
   -5.6200    2.7270  -21.5514 F   0  0  0  0  0  0  0  0  0  0  0  0
   -5.0140    0.6981  -20.0459 C   0  0  0  0  0  0  0  0  0  0  0  0
   -4.9840   -0.7834  -19.8126 C   0  0  0  0  0  0  0  0  0  0  0  0
   -5.5302   -1.7173  -20.8515 C   0  0  0  0  0  0  0  0  0  0  0  0
   -5.5003   -3.1988  -20.6182 C   0  0  0  0  0  0  0  0  0  0  0  0
   -4.9242   -3.7463  -19.3461 O   0  0  0  0  0  0  0  0  0  0  0  0
   -7.6810    0.6983  -25.6435 C   0  0  0  0  0  0  0  0  0  0  0  0
   -6.8042    1.1046  -26.7907 C   0  0  0  0  0  0  0  0  0  0  0  0
   -7.0950    2.3672  -27.5465 N   0  0  0  0  0  0  0  0  0  0  0  0
   -8.2628    3.2235  -27.1551 C   0  0  0  0  0  0  0  0  0  0  0  0
   -9.1396    2.8171  -26.0079 C   0  0  0  0  0  0  0  0  0  0  0  0
  -10.3074    3.6734  -25.6165 C   0  0  0  0  0  0  0  0  0  0  0  0
  -11.1842    3.2670  -24.4693 C   0  0  0  0  0  0  0  0  0  0  0  0
  -10.8934    2.0044  -23.7135 C   0  0  0  0  0  0  0  0  0  0  0  0
   -9.7256    1.1482  -24.1049 C   0  0  0  0  0  0  0  0  0  0  0  0
   -8.8488    1.5545  -25.2521 C   0  0  0  0  0  0  0  0  0  0  0  0
   -6.0166   -5.6143  -21.4238 C   0  0  0  0  0  0  0  0  0  0  0  0
   -3.5297   -7.2535  -24.0465 C   0  0  0  0  0  0  0  0  0  0  0  0
   -4.0742   -6.3387  -22.9897 N   0  0  0  0  0  0  0  0  0  0  0  0
   -5.4722   -6.5291  -22.4806 C   0  0  0  0  0  0  0  0  0  0  0  0
   -6.3258   -7.6343  -23.0282 O   0  0  0  0  0  0  0  0  0  0  0  0
   -3.5139   -5.6133  -22.6303 H   0  0  0  0  0  0  0  0  0  0  0  0
   -7.3379   -4.4059  -24.3358 C   0  0  0  0  0  0  0  0  0  0  0  0
   -8.1600   -5.0651  -25.4032 S   0  0  0  0  0  0  0  0  0  0  0  0
   -6.9055   -5.5022  -26.0997 O   0  0  0  0  0  0  0  0  0  0  0  0
   -9.4146   -4.6280  -24.7068 O   0  0  0  0  0  0  0  0  0  0  0  0
   -8.9823   -5.7243  -26.4706 N   0  0  0  0  0  0  0  0  0  0  0  0
   -9.4563   -4.9289  -27.6508 C   0  0  0  0  0  0  0  0  0  0  0  0
   -9.3305   -7.1789  -26.3580 C   0  0  0  0  0  0  0  0  0  0  0  0
 29 30  1  0  0  0
 30 31  1  0  0  0
 31 32  2  0  0  0
 31 28  1  0  0  0
 28  1  1  0  0  0
  1  2  1  0  0  0
  3  2  1  0  0  0
  3  4  1  0  0  0
  4  5  2  0  0  0
  4  6  1  0  0  0
  6 18  1  0  0  0
 18 19  2  0  0  0
 19 20  1  0  0  0
 20 21  2  0  0  0
 21 22  1  0  0  0
 22 23  2  0  0  0
 23 24  1  0  0  0
 24 25  2  0  0  0
 25 26  1  0  0  0
 26 27  2  0  0  0
  6  7  1  0  0  0
  7  8  1  0  0  0
  8 34  1  0  0  0
 34 35  1  0  0  0
 35 36  2  0  0  0
 35 37  2  0  0  0
 35 38  1  0  0  0
 38 39  1  0  0  0
 38 40  1  0  0  0
  3  9  1  0  0  0
  9 10  2  0  0  0
 10 11  1  0  0  0
 11 12  1  0  0  0
 11 13  2  0  0  0
 13 14  1  0  0  0
 14 15  2  0  0  0
 15 16  1  0  0  0
 16 17  2  0  0  0
 16  1  1  0  0  0
  8  3  1  0  0  0
 15  9  1  0  0  0
 27 18  1  0  0  0
 27 22  1  0  0  0
 30 33  1  0  0  0
M  END
> <minimizedAffinity>
-7.85489

> <CNNscore>
0.3171669543

> <CNNaffinity>
6.5099053383

> <CNN_VS>
2.0647268295

> <CNNaffinity_variance>
0.0747730359

$$$$



 40 44  0  0  0  0  0  0  0  0999 V2000
   -9.8609   -2.1264  -23.6849 N   0  0  0  0  0  0  0  0  0  0  0  0
   -8.4860   -2.2426  -23.0966 C   0  0  0  0  0  0  0  0  0  0  0  0
   -7.7093   -1.0056  -22.7552 C   0  0  0  0  0  0  0  0  0  0  0  0
   -6.8177    0.1359  -22.3653 C   0  0  0  0  0  0  0  0  0  0  0  0
   -6.8121    1.3509  -22.3545 O   0  0  0  0  0  0  0  0  0  0  0  0
   -5.5419   -0.4367  -21.8227 N   0  0  0  0  0  0  0  0  0  0  0  0
   -5.6450   -1.9322  -21.8772 C   0  0  0  0  0  0  0  0  0  0  0  0
   -6.9845   -2.2838  -22.4535 C   0  0  0  0  0  0  0  0  0  0  0  0
   -8.3075    0.3476  -23.0022 C   0  0  0  0  0  0  0  0  0  0  0  0
   -7.5308    1.5846  -22.6608 C   0  0  0  0  0  0  0  0  0  0  0  0
   -8.1290    2.9378  -22.9077 C   0  0  0  0  0  0  0  0  0  0  0  0
   -7.3523    4.1749  -22.5664 F   0  0  0  0  0  0  0  0  0  0  0  0
   -9.5039    3.0540  -23.4960 C   0  0  0  0  0  0  0  0  0  0  0  0
  -10.2806    1.8170  -23.8374 C   0  0  0  0  0  0  0  0  0  0  0  0
   -9.6824    0.4639  -23.5905 C   0  0  0  0  0  0  0  0  0  0  0  0
  -10.4591   -0.7732  -23.9318 C   0  0  0  0  0  0  0  0  0  0  0  0
  -11.8340   -0.6570  -24.5201 O   0  0  0  0  0  0  0  0  0  0  0  0
   -4.3690    0.3483  -21.3147 C   0  0  0  0  0  0  0  0  0  0  0  0
   -4.3285    0.7946  -19.8832 C   0  0  0  0  0  0  0  0  0  0  0  0
   -3.1556    1.5796  -19.3752 N   0  0  0  0  0  0  0  0  0  0  0  0
   -2.0233    1.9184  -20.2987 C   0  0  0  0  0  0  0  0  0  0  0  0
   -2.0638    1.4721  -21.7302 C   0  0  0  0  0  0  0  0  0  0  0  0
   -0.9313    1.8109  -22.6538 C   0  0  0  0  0  0  0  0  0  0  0  0
   -0.9719    1.3646  -24.0853 C   0  0  0  0  0  0  0  0  0  0  0  0
   -2.1448    0.5795  -24.5933 C   0  0  0  0  0  0  0  0  0  0  0  0
   -3.2772    0.2408  -23.6697 C   0  0  0  0  0  0  0  0  0  0  0  0
   -3.2367    0.6871  -22.2382 C   0  0  0  0  0  0  0  0  0  0  0  0
  -10.6376   -3.3635  -24.0263 C   0  0  0  0  0  0  0  0  0  0  0  0
  -10.2668   -6.3154  -26.6527 C   0  0  0  0  0  0  0  0  0  0  0  0
  -10.5476   -5.5825  -25.3744 N   0  0  0  0  0  0  0  0  0  0  0  0
  -10.3569   -4.0964  -25.3046 C   0  0  0  0  0  0  0  0  0  0  0  0
   -9.8855   -3.3430  -26.5131 O   0  0  0  0  0  0  0  0  0  0  0  0
  -10.8569   -6.0769  -24.5813 H   0  0  0  0  0  0  0  0  0  0  0  0
   -7.5073   -3.6701  -22.6872 C   0  0  0  0  0  0  0  0  0  0  0  0
   -6.5610   -4.7792  -23.0395 S   0  0  0  0  0  0  0  0  0  0  0  0
   -5.9554   -4.6978  -21.6696 O   0  0  0  0  0  0  0  0  0  0  0  0
   -7.1665   -4.8606  -24.4095 O   0  0  0  0  0  0  0  0  0  0  0  0
   -5.6146   -5.8883  -23.3920 N   0  0  0  0  0  0  0  0  0  0  0  0
   -4.8812   -5.8613  -24.7003 C   0  0  0  0  0  0  0  0  0  0  0  0
   -5.4015   -7.0245  -22.4361 C   0  0  0  0  0  0  0  0  0  0  0  0
 29 30  1  0  0  0
 30 31  1  0  0  0
 31 32  2  0  0  0
 31 28  1  0  0  0
 28  1  1  0  0  0
  1  2  1  0  0  0
  3  2  1  0  0  0
  3  4  1  0  0  0
  4  5  2  0  0  0
  4  6  1  0  0  0
  6 18  1  0  0  0
 18 19  2  0  0  0
 19 20  1  0  0  0
 20 21  2  0  0  0
 21 22  1  0  0  0
 22 23  2  0  0  0
 23 24  1  0  0  0
 24 25  2  0  0  0
 25 26  1  0  0  0
 26 27  2  0  0  0
  6  7  1  0  0  0
  7  8  1  0  0  0
  8 34  1  0  0  0
 34 35  1  0  0  0
 35 36  2  0  0  0
 35 37  2  0  0  0
 35 38  1  0  0  0
 38 39  1  0  0  0
 38 40  1  0  0  0
  3  9  1  0  0  0
  9 10  2  0  0  0
 10 11  1  0  0  0
 11 12  1  0  0  0
 11 13  2  0  0  0
 13 14  1  0  0  0
 14 15  2  0  0  0
 15 16  1  0  0  0
 16 17  2  0  0  0
 16  1  1  0  0  0
  8  3  1  0  0  0
 15  9  1  0  0  0
 27 18  1  0  0  0
 27 22  1  0  0  0
 30 33  1  0  0  0
M  END
> <minimizedAffinity>
-7.31384

> <CNNscore>
0.2817359865

> <CNNaffinity>
6.4709558487

> <CNN_VS>
1.8231011629

> <CNNaffinity_variance>
0.1544692218

$$$$



 40 44  0  0  0  0  0  0  0  0999 V2000
   -9.6741    2.6744  -23.9455 N   0  0  0  0  0  0  0  0  0  0  0  0
   -8.6653    1.5715  -24.0717 C   0  0  0  0  0  0  0  0  0  0  0  0
   -9.0919    0.1427  -23.9091 C   0  0  0  0  0  0  0  0  0  0  0  0
   -9.3686   -1.3252  -23.7723 C   0  0  0  0  0  0  0  0  0  0  0  0
  -10.2942   -2.0816  -23.5545 O   0  0  0  0  0  0  0  0  0  0  0  0
   -8.0770   -2.0611  -23.9730 N   0  0  0  0  0  0  0  0  0  0  0  0
   -7.0020   -1.0480  -24.2337 C   0  0  0  0  0  0  0  0  0  0  0  0
   -7.6292    0.3140  -24.1942 C   0  0  0  0  0  0  0  0  0  0  0  0
  -10.5273   -0.1833  -23.6201 C   0  0  0  0  0  0  0  0  0  0  0  0
  -10.9538   -1.6121  -23.4574 C   0  0  0  0  0  0  0  0  0  0  0  0
  -12.3892   -1.9380  -23.1685 C   0  0  0  0  0  0  0  0  0  0  0  0
  -12.8158   -3.3669  -23.0058 F   0  0  0  0  0  0  0  0  0  0  0  0
  -13.3980   -0.8351  -23.0422 C   0  0  0  0  0  0  0  0  0  0  0  0
  -12.9714    0.5937  -23.2049 C   0  0  0  0  0  0  0  0  0  0  0  0
  -11.5361    0.9196  -23.4938 C   0  0  0  0  0  0  0  0  0  0  0  0
  -11.1094    2.3485  -23.6565 C   0  0  0  0  0  0  0  0  0  0  0  0
  -12.1182    3.4514  -23.5303 O   0  0  0  0  0  0  0  0  0  0  0  0
   -7.8927   -3.5488  -23.9219 C   0  0  0  0  0  0  0  0  0  0  0  0
   -7.2609   -4.1855  -22.7196 C   0  0  0  0  0  0  0  0  0  0  0  0
   -7.0767   -5.6732  -22.6685 N   0  0  0  0  0  0  0  0  0  0  0  0
   -7.5243   -6.5244  -23.8196 C   0  0  0  0  0  0  0  0  0  0  0  0
   -8.1561   -5.8877  -25.0219 C   0  0  0  0  0  0  0  0  0  0  0  0
   -8.6038   -6.7389  -26.1731 C   0  0  0  0  0  0  0  0  0  0  0  0
   -9.2356   -6.1022  -27.3754 C   0  0  0  0  0  0  0  0  0  0  0  0
   -9.4198   -4.6144  -27.4265 C   0  0  0  0  0  0  0  0  0  0  0  0
   -8.9722   -3.7633  -26.2753 C   0  0  0  0  0  0  0  0  0  0  0  0
   -8.3404   -4.3999  -25.0730 C   0  0  0  0  0  0  0  0  0  0  0  0
   -9.2475    4.1033  -24.1082 C   0  0  0  0  0  0  0  0  0  0  0  0
  -11.4441    6.6154  -26.2562 C   0  0  0  0  0  0  0  0  0  0  0  0
  -10.9394    5.8095  -25.0961 N   0  0  0  0  0  0  0  0  0  0  0  0
   -9.7521    4.9092  -25.2683 C   0  0  0  0  0  0  0  0  0  0  0  0
   -9.0693    4.8148  -26.6006 O   0  0  0  0  0  0  0  0  0  0  0  0
  -11.3875    5.8714  -24.2217 H   0  0  0  0  0  0  0  0  0  0  0  0
   -6.9185    1.6184  -24.4032 C   0  0  0  0  0  0  0  0  0  0  0  0
   -5.8940    2.0817  -23.4105 S   0  0  0  0  0  0  0  0  0  0  0  0
   -5.9897    0.7656  -22.6973 O   0  0  0  0  0  0  0  0  0  0  0  0
   -5.7983    3.3979  -24.1237 O   0  0  0  0  0  0  0  0  0  0  0  0
   -4.8694    2.5452  -22.4178 N   0  0  0  0  0  0  0  0  0  0  0  0
   -4.7552    1.8660  -21.0852 C   0  0  0  0  0  0  0  0  0  0  0  0
   -3.9590    3.6878  -22.7577 C   0  0  0  0  0  0  0  0  0  0  0  0
 29 30  1  0  0  0
 30 31  1  0  0  0
 31 32  2  0  0  0
 31 28  1  0  0  0
 28  1  1  0  0  0
  1  2  1  0  0  0
  3  2  1  0  0  0
  3  4  1  0  0  0
  4  5  2  0  0  0
  4  6  1  0  0  0
  6 18  1  0  0  0
 18 19  2  0  0  0
 19 20  1  0  0  0
 20 21  2  0  0  0
 21 22  1  0  0  0
 22 23  2  0  0  0
 23 24  1  0  0  0
 24 25  2  0  0  0
 25 26  1  0  0  0
 26 27  2  0  0  0
  6  7  1  0  0  0
  7  8  1  0  0  0
  8 34  1  0  0  0
 34 35  1  0  0  0
 35 36  2  0  0  0
 35 37  2  0  0  0
 35 38  1  0  0  0
 38 39  1  0  0  0
 38 40  1  0  0  0
  3  9  1  0  0  0
  9 10  2  0  0  0
 10 11  1  0  0  0
 11 12  1  0  0  0
 11 13  2  0  0  0
 13 14  1  0  0  0
 14 15  2  0  0  0
 15 16  1  0  0  0
 16 17  2  0  0  0
 16  1  1  0  0  0
  8  3  1  0  0  0
 15  9  1  0  0  0
 27 18  1  0  0  0
 27 22  1  0  0  0
 30 33  1  0  0  0
M  END
> <minimizedAffinity>
-7.14508

> <CNNscore>
0.2647644877

> <CNNaffinity>
6.4872159958

> <CNN_VS>
1.7175843716

> <CNNaffinity_variance>
0.0503523424

$$$$



 40 44  0  0  0  0  0  0  0  0999 V2000
   -7.6147   -2.2834  -22.2337 N   0  0  0  0  0  0  0  0  0  0  0  0
   -8.4719   -1.2458  -22.8960 C   0  0  0  0  0  0  0  0  0  0  0  0
   -8.0062    0.1784  -22.9661 C   0  0  0  0  0  0  0  0  0  0  0  0
   -7.6747    1.6340  -23.1116 C   0  0  0  0  0  0  0  0  0  0  0  0
   -6.7918    2.4202  -22.8307 O   0  0  0  0  0  0  0  0  0  0  0  0
   -8.8090    2.2978  -23.8346 N   0  0  0  0  0  0  0  0  0  0  0  0
   -9.8416    1.2524  -24.1359 C   0  0  0  0  0  0  0  0  0  0  0  0
   -9.3455   -0.0574  -23.5992 C   0  0  0  0  0  0  0  0  0  0  0  0
   -6.6833    0.5649  -22.3740 C   0  0  0  0  0  0  0  0  0  0  0  0
   -6.2176    1.9890  -22.4441 C   0  0  0  0  0  0  0  0  0  0  0  0
   -4.8948    2.3755  -21.8520 C   0  0  0  0  0  0  0  0  0  0  0  0
   -4.4290    3.7997  -21.9222 F   0  0  0  0  0  0  0  0  0  0  0  0
   -4.0376    1.3379  -21.1898 C   0  0  0  0  0  0  0  0  0  0  0  0
   -4.5033   -0.0862  -21.1196 C   0  0  0  0  0  0  0  0  0  0  0  0
   -5.8261   -0.4727  -21.7117 C   0  0  0  0  0  0  0  0  0  0  0  0
   -6.2919   -1.8969  -21.6416 C   0  0  0  0  0  0  0  0  0  0  0  0
   -5.4347   -2.9345  -20.9794 O   0  0  0  0  0  0  0  0  0  0  0  0
   -8.8954    3.7518  -24.1932 C   0  0  0  0  0  0  0  0  0  0  0  0
   -7.6484    4.5824  -24.2633 C   0  0  0  0  0  0  0  0  0  0  0  0
   -7.7349    6.0363  -24.6220 N   0  0  0  0  0  0  0  0  0  0  0  0
   -9.0684    6.6596  -24.9104 C   0  0  0  0  0  0  0  0  0  0  0  0
  -10.3154    5.8289  -24.8403 C   0  0  0  0  0  0  0  0  0  0  0  0
  -11.6490    6.4523  -25.1288 C   0  0  0  0  0  0  0  0  0  0  0  0
  -12.8960    5.6215  -25.0586 C   0  0  0  0  0  0  0  0  0  0  0  0
  -12.8095    4.1676  -24.6999 C   0  0  0  0  0  0  0  0  0  0  0  0
  -11.4760    3.5444  -24.4115 C   0  0  0  0  0  0  0  0  0  0  0  0
  -10.2290    4.3750  -24.4816 C   0  0  0  0  0  0  0  0  0  0  0  0
   -8.0805   -3.7076  -22.1636 C   0  0  0  0  0  0  0  0  0  0  0  0
   -5.6516   -6.3911  -23.7914 C   0  0  0  0  0  0  0  0  0  0  0  0
   -6.2043   -5.3735  -22.8379 N   0  0  0  0  0  0  0  0  0  0  0  0
   -7.5278   -4.7252  -23.1171 C   0  0  0  0  0  0  0  0  0  0  0  0
   -8.2988   -5.0945  -24.3497 O   0  0  0  0  0  0  0  0  0  0  0  0
   -5.6983   -5.1311  -22.0289 H   0  0  0  0  0  0  0  0  0  0  0  0
  -10.0627   -1.3723  -23.6812 C   0  0  0  0  0  0  0  0  0  0  0  0
  -11.5066   -1.4650  -23.2859 S   0  0  0  0  0  0  0  0  0  0  0  0
  -11.8815   -0.5995  -24.4522 O   0  0  0  0  0  0  0  0  0  0  0  0
  -11.1318   -2.3305  -22.1195 O   0  0  0  0  0  0  0  0  0  0  0  0
  -12.9506   -1.5577  -22.8905 N   0  0  0  0  0  0  0  0  0  0  0  0
  -13.9241   -0.5156  -23.3559 C   0  0  0  0  0  0  0  0  0  0  0  0
  -13.4212   -2.6924  -22.0298 C   0  0  0  0  0  0  0  0  0  0  0  0
 29 30  1  0  0  0
 30 31  1  0  0  0
 31 32  2  0  0  0
 31 28  1  0  0  0
 28  1  1  0  0  0
  1  2  1  0  0  0
  3  2  1  0  0  0
  3  4  1  0  0  0
  4  5  2  0  0  0
  4  6  1  0  0  0
  6 18  1  0  0  0
 18 19  2  0  0  0
 19 20  1  0  0  0
 20 21  2  0  0  0
 21 22  1  0  0  0
 22 23  2  0  0  0
 23 24  1  0  0  0
 24 25  2  0  0  0
 25 26  1  0  0  0
 26 27  2  0  0  0
  6  7  1  0  0  0
  7  8  1  0  0  0
  8 34  1  0  0  0
 34 35  1  0  0  0
 35 36  2  0  0  0
 35 37  2  0  0  0
 35 38  1  0  0  0
 38 39  1  0  0  0
 38 40  1  0  0  0
  3  9  1  0  0  0
  9 10  2  0  0  0
 10 11  1  0  0  0
 11 12  1  0  0  0
 11 13  2  0  0  0
 13 14  1  0  0  0
 14 15  2  0  0  0
 15 16  1  0  0  0
 16 17  2  0  0  0
 16  1  1  0  0  0
  8  3  1  0  0  0
 15  9  1  0  0  0
 27 18  1  0  0  0
 27 22  1  0  0  0
 30 33  1  0  0  0
M  END
> <minimizedAffinity>
-7.44342

> <CNNscore>
0.2485062480

> <CNNaffinity>
6.6125793457

> <CNN_VS>
1.6432672739

> <CNNaffinity_variance>
0.0567648932

$$$$



 40 44  0  0  0  0  0  0  0  0999 V2000
   -6.9040   -3.3498  -21.9867 N   0  0  0  0  0  0  0  0  0  0  0  0
   -7.9165   -2.6743  -22.8633 C   0  0  0  0  0  0  0  0  0  0  0  0
   -7.9125   -1.1806  -23.0002 C   0  0  0  0  0  0  0  0  0  0  0  0
   -8.0310    0.2963  -23.2339 C   0  0  0  0  0  0  0  0  0  0  0  0
   -7.4978    1.3368  -22.9032 O   0  0  0  0  0  0  0  0  0  0  0  0
   -9.1760    0.5263  -24.1753 N   0  0  0  0  0  0  0  0  0  0  0  0
   -9.7652   -0.8085  -24.5233 C   0  0  0  0  0  0  0  0  0  0  0  0
   -8.9843   -1.8634  -23.7971 C   0  0  0  0  0  0  0  0  0  0  0  0
   -6.8960   -0.3623  -22.2605 C   0  0  0  0  0  0  0  0  0  0  0  0
   -6.8920    1.1314  -22.3974 C   0  0  0  0  0  0  0  0  0  0  0  0
   -5.8756    1.9496  -21.6576 C   0  0  0  0  0  0  0  0  0  0  0  0
   -5.8716    3.4434  -21.7945 F   0  0  0  0  0  0  0  0  0  0  0  0
   -4.8631    1.2741  -20.7809 C   0  0  0  0  0  0  0  0  0  0  0  0
   -4.8670   -0.2196  -20.6440 C   0  0  0  0  0  0  0  0  0  0  0  0
   -5.8835   -1.0378  -21.3838 C   0  0  0  0  0  0  0  0  0  0  0  0
   -5.8875   -2.5316  -21.2469 C   0  0  0  0  0  0  0  0  0  0  0  0
   -4.8750   -3.2071  -20.3703 O   0  0  0  0  0  0  0  0  0  0  0  0
   -9.6488    1.8574  -24.6799 C   0  0  0  0  0  0  0  0  0  0  0  0
  -10.6125    2.6690  -23.8658 C   0  0  0  0  0  0  0  0  0  0  0  0
  -11.0853    4.0000  -24.3704 N   0  0  0  0  0  0  0  0  0  0  0  0
  -10.5944    4.5196  -25.6891 C   0  0  0  0  0  0  0  0  0  0  0  0
   -9.6308    3.7080  -26.5032 C   0  0  0  0  0  0  0  0  0  0  0  0
   -9.1399    4.2276  -27.8221 C   0  0  0  0  0  0  0  0  0  0  0  0
   -8.1763    3.4160  -28.6361 C   0  0  0  0  0  0  0  0  0  0  0  0
   -7.7035    2.0849  -28.1315 C   0  0  0  0  0  0  0  0  0  0  0  0
   -8.1943    1.5654  -26.8127 C   0  0  0  0  0  0  0  0  0  0  0  0
   -9.1580    2.3769  -25.9986 C   0  0  0  0  0  0  0  0  0  0  0  0
   -6.9080   -4.8436  -21.8498 C   0  0  0  0  0  0  0  0  0  0  0  0
   -4.7145   -5.9218  -24.9765 C   0  0  0  0  0  0  0  0  0  0  0  0
   -5.5288   -5.0806  -24.0388 N   0  0  0  0  0  0  0  0  0  0  0  0
   -6.0937   -5.6848  -22.7875 C   0  0  0  0  0  0  0  0  0  0  0  0
   -5.8442   -7.1303  -22.4738 O   0  0  0  0  0  0  0  0  0  0  0  0
   -5.6926   -4.1319  -24.2447 H   0  0  0  0  0  0  0  0  0  0  0  0
   -9.2318   -3.3416  -23.8573 C   0  0  0  0  0  0  0  0  0  0  0  0
   -9.5482   -3.9964  -25.1691 S   0  0  0  0  0  0  0  0  0  0  0  0
  -10.6581   -3.0124  -25.3926 O   0  0  0  0  0  0  0  0  0  0  0  0
   -8.4383   -4.9804  -24.9457 O   0  0  0  0  0  0  0  0  0  0  0  0
   -9.8646   -4.6512  -26.4810 N   0  0  0  0  0  0  0  0  0  0  0  0
  -10.3093   -6.0834  -26.5166 C   0  0  0  0  0  0  0  0  0  0  0  0
   -9.7363   -3.8738  -27.7575 C   0  0  0  0  0  0  0  0  0  0  0  0
 29 30  1  0  0  0
 30 31  1  0  0  0
 31 32  2  0  0  0
 31 28  1  0  0  0
 28  1  1  0  0  0
  1  2  1  0  0  0
  3  2  1  0  0  0
  3  4  1  0  0  0
  4  5  2  0  0  0
  4  6  1  0  0  0
  6 18  1  0  0  0
 18 19  2  0  0  0
 19 20  1  0  0  0
 20 21  2  0  0  0
 21 22  1  0  0  0
 22 23  2  0  0  0
 23 24  1  0  0  0
 24 25  2  0  0  0
 25 26  1  0  0  0
 26 27  2  0  0  0
  6  7  1  0  0  0
  7  8  1  0  0  0
  8 34  1  0  0  0
 34 35  1  0  0  0
 35 36  2  0  0  0
 35 37  2  0  0  0
 35 38  1  0  0  0
 38 39  1  0  0  0
 38 40  1  0  0  0
  3  9  1  0  0  0
  9 10  2  0  0  0
 10 11  1  0  0  0
 11 12  1  0  0  0
 11 13  2  0  0  0
 13 14  1  0  0  0
 14 15  2  0  0  0
 15 16  1  0  0  0
 16 17  2  0  0  0
 16  1  1  0  0  0
  8  3  1  0  0  0
 15  9  1  0  0  0
 27 18  1  0  0  0
 27 22  1  0  0  0
 30 33  1  0  0  0
M  END
> <minimizedAffinity>
-6.55563

> <CNNscore>
0.2378146499

> <CNNaffinity>
6.3534574509

> <CNN_VS>
1.5109452009

> <CNNaffinity_variance>
0.1597537547

$$$$
