


 35 40  0  0  0  0  0  0  0  0999 V2000
   -7.7126   -1.4340  -23.0887 N   0  0  0  0  0  0  0  0  0  0  0  0
   -7.9290    0.0305  -23.3304 C   0  0  0  0  0  0  0  0  0  0  0  0
   -9.3223    0.5824  -23.3935 C   0  0  0  0  0  0  0  0  0  0  0  0
  -10.6500    1.2748  -23.4816 C   0  0  0  0  0  0  0  0  0  0  0  0
  -11.8369    1.0238  -23.4140 O   0  0  0  0  0  0  0  0  0  0  0  0
  -10.3972    2.7319  -23.7322 N   0  0  0  0  0  0  0  0  0  0  0  0
   -8.9132    2.9402  -23.7989 C   0  0  0  0  0  0  0  0  0  0  0  0
   -8.2489    1.6117  -23.5896 C   0  0  0  0  0  0  0  0  0  0  0  0
   -6.7707    1.3572  -23.5784 C   0  0  0  0  0  0  0  0  0  0  0  0
  -10.4993   -0.3302  -23.2148 C   0  0  0  0  0  0  0  0  0  0  0  0
  -11.8926    0.2218  -23.2779 C   0  0  0  0  0  0  0  0  0  0  0  0
  -13.0696   -0.6908  -23.0991 C   0  0  0  0  0  0  0  0  0  0  0  0
  -14.4630   -0.1389  -23.1622 F   0  0  0  0  0  0  0  0  0  0  0  0
  -12.8532   -2.1553  -22.8574 C   0  0  0  0  0  0  0  0  0  0  0  0
  -11.4599   -2.7072  -22.7943 C   0  0  0  0  0  0  0  0  0  0  0  0
  -10.2830   -1.7947  -22.9730 C   0  0  0  0  0  0  0  0  0  0  0  0
   -8.8896   -2.3466  -22.9100 C   0  0  0  0  0  0  0  0  0  0  0  0
   -8.6732   -3.8111  -22.6682 O   0  0  0  0  0  0  0  0  0  0  0  0
  -11.4445    3.7943  -23.8885 C   0  0  0  0  0  0  0  0  0  0  0  0
  -12.2885    4.1941  -22.7146 C   0  0  0  0  0  0  0  0  0  0  0  0
  -13.3358    5.2565  -22.8710 N   0  0  0  0  0  0  0  0  0  0  0  0
  -13.5392    5.9191  -24.2012 C   0  0  0  0  0  0  0  0  0  0  0  0
  -12.6952    5.5193  -25.3751 C   0  0  0  0  0  0  0  0  0  0  0  0
  -12.8987    6.1820  -26.7054 C   0  0  0  0  0  0  0  0  0  0  0  0
  -12.0547    5.7821  -27.8792 C   0  0  0  0  0  0  0  0  0  0  0  0
  -11.0074    4.7197  -27.7229 C   0  0  0  0  0  0  0  0  0  0  0  0
  -10.8040    4.0571  -26.3927 C   0  0  0  0  0  0  0  0  0  0  0  0
  -11.6479    4.4569  -25.2188 C   0  0  0  0  0  0  0  0  0  0  0  0
   -6.3192   -1.9860  -23.0256 C   0  0  0  0  0  0  0  0  0  0  0  0
   -5.5592   -6.8736  -21.1780 C   0  0  0  0  0  0  0  0  0  0  0  0
   -5.6581   -5.3793  -21.2609 C   0  0  0  0  0  0  0  0  0  0  0  0
   -6.0353   -4.5867  -22.4773 C   0  0  0  0  0  0  0  0  0  0  0  0
   -6.0075   -3.1326  -22.1102 C   0  0  0  0  0  0  0  0  0  0  0  0
   -5.6131   -3.0264  -20.6667 O   0  0  0  0  0  0  0  0  0  0  0  0
   -5.3972   -4.4150  -20.1420 N   0  0  0  0  0  0  0  0  0  0  0  0
 30 31  1  0  0  0
 31 32  1  0  0  0
 32 33  2  0  0  0
 33 29  1  0  0  0
 29  1  1  0  0  0
  1  2  1  0  0  0
  3  2  1  0  0  0
  3  4  1  0  0  0
  4  5  2  0  0  0
  4  6  1  0  0  0
  6 19  1  0  0  0
 19 20  2  0  0  0
 20 21  1  0  0  0
 21 22  2  0  0  0
 22 23  1  0  0  0
 23 24  2  0  0  0
 24 25  1  0  0  0
 25 26  2  0  0  0
 26 27  1  0  0  0
 27 28  2  0  0  0
  6  7  1  0  0  0
  7  8  1  0  0  0
  8  9  1  0  0  0
  3 10  1  0  0  0
 10 11  2  0  0  0
 11 12  1  0  0  0
 12 13  1  0  0  0
 12 14  2  0  0  0
 14 15  1  0  0  0
 15 16  2  0  0  0
 16 17  1  0  0  0
 17 18  2  0  0  0
 33 34  1  0  0  0
 34 35  1  0  0  0
 35 31  2  0  0  0
 17  1  1  0  0  0
  8  3  1  0  0  0
 16 10  1  0  0  0
 28 19  1  0  0  0
 28 23  1  0  0  0
M  END
> <minimizedAffinity>
-8.23954

> <CNNscore>
0.7435325384

> <CNNaffinity>
6.6736779213

> <CNN_VS>
4.9620966911

> <CNNaffinity_variance>
0.0680642575

$$$$



 35 40  0  0  0  0  0  0  0  0999 V2000
   -9.9387    2.6967  -24.4605 N   0  0  0  0  0  0  0  0  0  0  0  0
   -8.9133    1.6078  -24.5742 C   0  0  0  0  0  0  0  0  0  0  0  0
   -9.2863    0.1903  -24.2555 C   0  0  0  0  0  0  0  0  0  0  0  0
   -9.5109   -1.2654  -23.9715 C   0  0  0  0  0  0  0  0  0  0  0  0
  -10.3951   -2.0185  -23.6147 O   0  0  0  0  0  0  0  0  0  0  0  0
   -8.2197   -1.9895  -24.2136 N   0  0  0  0  0  0  0  0  0  0  0  0
   -7.1971   -0.9814  -24.6472 C   0  0  0  0  0  0  0  0  0  0  0  0
   -7.8563    0.3657  -24.6731 C   0  0  0  0  0  0  0  0  0  0  0  0
   -7.2006    1.6610  -25.0504 C   0  0  0  0  0  0  0  0  0  0  0  0
  -10.6846   -0.1383  -23.8231 C   0  0  0  0  0  0  0  0  0  0  0  0
  -11.0575   -1.5558  -23.5044 C   0  0  0  0  0  0  0  0  0  0  0  0
  -12.4557   -1.8844  -23.0721 C   0  0  0  0  0  0  0  0  0  0  0  0
  -12.8287   -3.3019  -22.7534 F   0  0  0  0  0  0  0  0  0  0  0  0
  -13.4810   -0.7954  -22.9584 C   0  0  0  0  0  0  0  0  0  0  0  0
  -13.1081    0.6221  -23.2771 C   0  0  0  0  0  0  0  0  0  0  0  0
  -11.7099    0.9506  -23.7094 C   0  0  0  0  0  0  0  0  0  0  0  0
  -11.3369    2.3682  -24.0281 C   0  0  0  0  0  0  0  0  0  0  0  0
  -12.3622    3.4571  -23.9144 O   0  0  0  0  0  0  0  0  0  0  0  0
   -7.9913   -3.4631  -24.0507 C   0  0  0  0  0  0  0  0  0  0  0  0
   -7.3390   -3.9879  -22.8061 C   0  0  0  0  0  0  0  0  0  0  0  0
   -7.1106   -5.4614  -22.6432 N   0  0  0  0  0  0  0  0  0  0  0  0
   -7.5345   -6.4101  -23.7249 C   0  0  0  0  0  0  0  0  0  0  0  0
   -8.1869   -5.8853  -24.9695 C   0  0  0  0  0  0  0  0  0  0  0  0
   -8.6108   -6.8341  -26.0513 C   0  0  0  0  0  0  0  0  0  0  0  0
   -9.2631   -6.3093  -27.2959 C   0  0  0  0  0  0  0  0  0  0  0  0
   -9.4915   -4.8357  -27.4588 C   0  0  0  0  0  0  0  0  0  0  0  0
   -9.0676   -3.8870  -26.3771 C   0  0  0  0  0  0  0  0  0  0  0  0
   -8.4153   -4.4118  -25.1324 C   0  0  0  0  0  0  0  0  0  0  0  0
   -9.5657    4.1143  -24.7792 C   0  0  0  0  0  0  0  0  0  0  0  0
  -12.1087    5.6880  -29.1308 C   0  0  0  0  0  0  0  0  0  0  0  0
  -11.5741    5.6383  -27.7303 C   0  0  0  0  0  0  0  0  0  0  0  0
  -10.6997    4.5623  -27.1579 C   0  0  0  0  0  0  0  0  0  0  0  0
  -10.4052    4.9150  -25.7300 C   0  0  0  0  0  0  0  0  0  0  0  0
  -11.0975    6.2091  -25.4199 O   0  0  0  0  0  0  0  0  0  0  0  0
  -11.8199    6.6561  -26.6562 N   0  0  0  0  0  0  0  0  0  0  0  0
 30 31  1  0  0  0
 31 32  1  0  0  0
 32 33  2  0  0  0
 33 29  1  0  0  0
 29  1  1  0  0  0
  1  2  1  0  0  0
  3  2  1  0  0  0
  3  4  1  0  0  0
  4  5  2  0  0  0
  4  6  1  0  0  0
  6 19  1  0  0  0
 19 20  2  0  0  0
 20 21  1  0  0  0
 21 22  2  0  0  0
 22 23  1  0  0  0
 23 24  2  0  0  0
 24 25  1  0  0  0
 25 26  2  0  0  0
 26 27  1  0  0  0
 27 28  2  0  0  0
  6  7  1  0  0  0
  7  8  1  0  0  0
  8  9  1  0  0  0
  3 10  1  0  0  0
 10 11  2  0  0  0
 11 12  1  0  0  0
 12 13  1  0  0  0
 12 14  2  0  0  0
 14 15  1  0  0  0
 15 16  2  0  0  0
 16 17  1  0  0  0
 17 18  2  0  0  0
 33 34  1  0  0  0
 34 35  1  0  0  0
 35 31  2  0  0  0
 17  1  1  0  0  0
  8  3  1  0  0  0
 16 10  1  0  0  0
 28 19  1  0  0  0
 28 23  1  0  0  0
M  END
> <minimizedAffinity>
-7.70961

> <CNNscore>
0.5011224747

> <CNNaffinity>
6.5612587929

> <CNN_VS>
3.2879941463

> <CNNaffinity_variance>
0.1370621026

$$$$



 35 40  0  0  0  0  0  0  0  0999 V2000
  -10.9275    3.4305  -23.8635 N   0  0  0  0  0  0  0  0  0  0  0  0
   -9.6432    2.6558  -23.8831 C   0  0  0  0  0  0  0  0  0  0  0  0
   -9.6607    1.1696  -23.6813 C   0  0  0  0  0  0  0  0  0  0  0  0
   -9.5220   -0.3124  -23.4951 C   0  0  0  0  0  0  0  0  0  0  0  0
  -10.2100   -1.2940  -23.2965 O   0  0  0  0  0  0  0  0  0  0  0  0
   -8.0651   -0.6571  -23.5893 N   0  0  0  0  0  0  0  0  0  0  0  0
   -7.3035    0.6118  -23.8336 C   0  0  0  0  0  0  0  0  0  0  0  0
   -8.2896    1.7407  -23.8905 C   0  0  0  0  0  0  0  0  0  0  0  0
   -7.9620    3.1869  -24.1168 C   0  0  0  0  0  0  0  0  0  0  0  0
  -10.9625    0.4579  -23.4598 C   0  0  0  0  0  0  0  0  0  0  0  0
  -10.9800   -1.0283  -23.2580 C   0  0  0  0  0  0  0  0  0  0  0  0
  -12.2817   -1.7398  -23.0366 C   0  0  0  0  0  0  0  0  0  0  0  0
  -12.2992   -3.2261  -22.8348 F   0  0  0  0  0  0  0  0  0  0  0  0
  -13.5660   -0.9651  -23.0170 C   0  0  0  0  0  0  0  0  0  0  0  0
  -13.5486    0.5211  -23.2188 C   0  0  0  0  0  0  0  0  0  0  0  0
  -12.2468    1.2326  -23.4402 C   0  0  0  0  0  0  0  0  0  0  0  0
  -12.2293    2.7189  -23.6421 C   0  0  0  0  0  0  0  0  0  0  0  0
  -13.5136    3.4936  -23.6225 O   0  0  0  0  0  0  0  0  0  0  0  0
   -7.4739   -2.0297  -23.4615 C   0  0  0  0  0  0  0  0  0  0  0  0
   -6.7743   -2.4302  -22.1964 C   0  0  0  0  0  0  0  0  0  0  0  0
   -6.1830   -3.8028  -22.0687 N   0  0  0  0  0  0  0  0  0  0  0  0
   -6.2913   -4.7748  -23.2059 C   0  0  0  0  0  0  0  0  0  0  0  0
   -6.9908   -4.3743  -24.4709 C   0  0  0  0  0  0  0  0  0  0  0  0
   -7.0990   -5.3465  -25.6082 C   0  0  0  0  0  0  0  0  0  0  0  0
   -7.7985   -4.9458  -26.8732 C   0  0  0  0  0  0  0  0  0  0  0  0
   -8.3898   -3.5732  -27.0010 C   0  0  0  0  0  0  0  0  0  0  0  0
   -8.2816   -2.6012  -25.8638 C   0  0  0  0  0  0  0  0  0  0  0  0
   -7.5821   -3.0017  -24.5987 C   0  0  0  0  0  0  0  0  0  0  0  0
  -10.9100    4.9168  -24.0653 C   0  0  0  0  0  0  0  0  0  0  0  0
  -14.0074    6.5179  -28.0306 C   0  0  0  0  0  0  0  0  0  0  0  0
  -13.4355    6.3180  -26.6584 C   0  0  0  0  0  0  0  0  0  0  0  0
  -12.2197    5.5074  -26.3194 C   0  0  0  0  0  0  0  0  0  0  0  0
  -12.0118    5.5820  -24.8358 C   0  0  0  0  0  0  0  0  0  0  0  0
  -13.0991    6.4388  -24.2578 O   0  0  0  0  0  0  0  0  0  0  0  0
  -13.9789    6.8936  -25.3843 N   0  0  0  0  0  0  0  0  0  0  0  0
 30 31  1  0  0  0
 31 32  1  0  0  0
 32 33  2  0  0  0
 33 29  1  0  0  0
 29  1  1  0  0  0
  1  2  1  0  0  0
  3  2  1  0  0  0
  3  4  1  0  0  0
  4  5  2  0  0  0
  4  6  1  0  0  0
  6 19  1  0  0  0
 19 20  2  0  0  0
 20 21  1  0  0  0
 21 22  2  0  0  0
 22 23  1  0  0  0
 23 24  2  0  0  0
 24 25  1  0  0  0
 25 26  2  0  0  0
 26 27  1  0  0  0
 27 28  2  0  0  0
  6  7  1  0  0  0
  7  8  1  0  0  0
  8  9  1  0  0  0
  3 10  1  0  0  0
 10 11  2  0  0  0
 11 12  1  0  0  0
 12 13  1  0  0  0
 12 14  2  0  0  0
 14 15  1  0  0  0
 15 16  2  0  0  0
 16 17  1  0  0  0
 17 18  2  0  0  0
 33 34  1  0  0  0
 34 35  1  0  0  0
 35 31  2  0  0  0
 17  1  1  0  0  0
  8  3  1  0  0  0
 16 10  1  0  0  0
 28 19  1  0  0  0
 28 23  1  0  0  0
M  END
> <minimizedAffinity>
-7.95632

> <CNNscore>
0.4809214473

> <CNNaffinity>
6.6375532150

> <CNN_VS>
3.1921417713

> <CNNaffinity_variance>
0.3231241405

$$$$



 35 40  0  0  0  0  0  0  0  0999 V2000
   -7.1734   -1.1707  -22.8030 N   0  0  0  0  0  0  0  0  0  0  0  0
   -7.2579    0.1593  -23.4914 C   0  0  0  0  0  0  0  0  0  0  0  0
   -8.5926    0.7102  -23.8976 C   0  0  0  0  0  0  0  0  0  0  0  0
   -9.8497    1.3853  -24.3602 C   0  0  0  0  0  0  0  0  0  0  0  0
  -11.0509    1.2036  -24.3793 O   0  0  0  0  0  0  0  0  0  0  0  0
   -9.4688    2.6910  -24.9928 N   0  0  0  0  0  0  0  0  0  0  0  0
   -7.9763    2.8228  -24.9211 C   0  0  0  0  0  0  0  0  0  0  0  0
   -7.4348    1.5986  -24.2443 C   0  0  0  0  0  0  0  0  0  0  0  0
   -5.9893    1.3131  -23.9634 C   0  0  0  0  0  0  0  0  0  0  0  0
   -9.8430   -0.0691  -23.6155 C   0  0  0  0  0  0  0  0  0  0  0  0
  -11.1777    0.4817  -24.0218 C   0  0  0  0  0  0  0  0  0  0  0  0
  -12.4279   -0.2975  -23.7397 C   0  0  0  0  0  0  0  0  0  0  0  0
  -13.7627    0.2533  -24.1459 F   0  0  0  0  0  0  0  0  0  0  0  0
  -12.3435   -1.6275  -23.0513 C   0  0  0  0  0  0  0  0  0  0  0  0
  -11.0087   -2.1783  -22.6450 C   0  0  0  0  0  0  0  0  0  0  0  0
   -9.7585   -1.3991  -22.9271 C   0  0  0  0  0  0  0  0  0  0  0  0
   -8.4237   -1.9499  -22.5209 C   0  0  0  0  0  0  0  0  0  0  0  0
   -8.3392   -3.2800  -21.8325 O   0  0  0  0  0  0  0  0  0  0  0  0
  -10.4144    3.6895  -25.5918 C   0  0  0  0  0  0  0  0  0  0  0  0
  -10.3091    4.0438  -27.0456 C   0  0  0  0  0  0  0  0  0  0  0  0
  -11.2547    5.0423  -27.6446 N   0  0  0  0  0  0  0  0  0  0  0  0
  -12.3056    5.6864  -26.7898 C   0  0  0  0  0  0  0  0  0  0  0  0
  -12.4109    5.3321  -25.3361 C   0  0  0  0  0  0  0  0  0  0  0  0
  -13.4619    5.9763  -24.4813 C   0  0  0  0  0  0  0  0  0  0  0  0
  -13.5672    5.6220  -23.0276 C   0  0  0  0  0  0  0  0  0  0  0  0
  -12.6216    4.6235  -22.4286 C   0  0  0  0  0  0  0  0  0  0  0  0
  -11.5706    3.9793  -23.2833 C   0  0  0  0  0  0  0  0  0  0  0  0
  -11.4653    4.3336  -24.7371 C   0  0  0  0  0  0  0  0  0  0  0  0
   -5.8386   -1.7215  -22.3968 C   0  0  0  0  0  0  0  0  0  0  0  0
   -5.8237   -6.9877  -22.0120 C   0  0  0  0  0  0  0  0  0  0  0  0
   -5.7316   -5.5316  -21.6638 C   0  0  0  0  0  0  0  0  0  0  0  0
   -5.9179   -4.3847  -22.6123 C   0  0  0  0  0  0  0  0  0  0  0  0
   -5.7384   -3.1110  -21.8406 C   0  0  0  0  0  0  0  0  0  0  0  0
   -5.4412   -3.4708  -20.4150 O   0  0  0  0  0  0  0  0  0  0  0  0
   -5.4370   -4.9668  -20.3057 N   0  0  0  0  0  0  0  0  0  0  0  0
 30 31  1  0  0  0
 31 32  1  0  0  0
 32 33  2  0  0  0
 33 29  1  0  0  0
 29  1  1  0  0  0
  1  2  1  0  0  0
  3  2  1  0  0  0
  3  4  1  0  0  0
  4  5  2  0  0  0
  4  6  1  0  0  0
  6 19  1  0  0  0
 19 20  2  0  0  0
 20 21  1  0  0  0
 21 22  2  0  0  0
 22 23  1  0  0  0
 23 24  2  0  0  0
 24 25  1  0  0  0
 25 26  2  0  0  0
 26 27  1  0  0  0
 27 28  2  0  0  0
  6  7  1  0  0  0
  7  8  1  0  0  0
  8  9  1  0  0  0
  3 10  1  0  0  0
 10 11  2  0  0  0
 11 12  1  0  0  0
 12 13  1  0  0  0
 12 14  2  0  0  0
 14 15  1  0  0  0
 15 16  2  0  0  0
 16 17  1  0  0  0
 17 18  2  0  0  0
 33 34  1  0  0  0
 34 35  1  0  0  0
 35 31  2  0  0  0
 17  1  1  0  0  0
  8  3  1  0  0  0
 16 10  1  0  0  0
 28 19  1  0  0  0
 28 23  1  0  0  0
M  END
> <minimizedAffinity>
-7.75775

> <CNNscore>
0.4379451871

> <CNNaffinity>
6.2914495468

> <CNN_VS>
2.7553100586

> <CNNaffinity_variance>
0.2592461407

$$$$



 35 40  0  0  0  0  0  0  0  0999 V2000
   -9.2791    2.6029  -24.4747 N   0  0  0  0  0  0  0  0  0  0  0  0
   -8.3701    1.4180  -24.6154 C   0  0  0  0  0  0  0  0  0  0  0  0
   -8.8800    0.0409  -24.3095 C   0  0  0  0  0  0  0  0  0  0  0  0
   -9.2467   -1.3885  -24.0408 C   0  0  0  0  0  0  0  0  0  0  0  0
  -10.1980   -2.0537  -23.6818 O   0  0  0  0  0  0  0  0  0  0  0  0
   -8.0380   -2.2354  -24.3088 N   0  0  0  0  0  0  0  0  0  0  0  0
   -6.9243   -1.3294  -24.7432 C   0  0  0  0  0  0  0  0  0  0  0  0
   -7.4447    0.0775  -24.7436 C   0  0  0  0  0  0  0  0  0  0  0  0
   -6.6664    1.3053  -25.1133 C   0  0  0  0  0  0  0  0  0  0  0  0
  -10.2991   -0.1513  -23.8630 C   0  0  0  0  0  0  0  0  0  0  0  0
  -10.8091   -1.5284  -23.5571 C   0  0  0  0  0  0  0  0  0  0  0  0
  -12.2281   -1.7206  -23.1106 C   0  0  0  0  0  0  0  0  0  0  0  0
  -12.7382   -3.0977  -22.8048 F   0  0  0  0  0  0  0  0  0  0  0  0
  -13.1371   -0.5357  -22.9700 C   0  0  0  0  0  0  0  0  0  0  0  0
  -12.6272    0.8413  -23.2758 C   0  0  0  0  0  0  0  0  0  0  0  0
  -11.2082    1.0335  -23.7223 C   0  0  0  0  0  0  0  0  0  0  0  0
  -10.6981    2.4106  -24.0282 C   0  0  0  0  0  0  0  0  0  0  0  0
  -11.6071    3.5955  -23.8875 O   0  0  0  0  0  0  0  0  0  0  0  0
   -7.9573   -3.7265  -24.1673 C   0  0  0  0  0  0  0  0  0  0  0  0
   -7.3870   -4.3316  -22.9188 C   0  0  0  0  0  0  0  0  0  0  0  0
   -7.3062   -5.8228  -22.7773 N   0  0  0  0  0  0  0  0  0  0  0  0
   -7.7958   -6.7088  -23.8842 C   0  0  0  0  0  0  0  0  0  0  0  0
   -8.3660   -6.1036  -25.1327 C   0  0  0  0  0  0  0  0  0  0  0  0
   -8.8556   -6.9897  -26.2397 C   0  0  0  0  0  0  0  0  0  0  0  0
   -9.4259   -6.3845  -27.4881 C   0  0  0  0  0  0  0  0  0  0  0  0
   -9.5066   -4.8934  -27.6296 C   0  0  0  0  0  0  0  0  0  0  0  0
   -9.0171   -4.0074  -26.5227 C   0  0  0  0  0  0  0  0  0  0  0  0
   -8.4468   -4.6125  -25.2742 C   0  0  0  0  0  0  0  0  0  0  0  0
   -8.7690    3.9800  -24.7806 C   0  0  0  0  0  0  0  0  0  0  0  0
   -6.1995    7.2937  -21.5716 C   0  0  0  0  0  0  0  0  0  0  0  0
   -6.5250    6.1178  -22.4440 C   0  0  0  0  0  0  0  0  0  0  0  0
   -7.8170    5.8901  -23.1712 C   0  0  0  0  0  0  0  0  0  0  0  0
   -7.7060    4.5945  -23.9190 C   0  0  0  0  0  0  0  0  0  0  0  0
   -6.3454    4.0214  -23.6539 O   0  0  0  0  0  0  0  0  0  0  0  0
   -5.6155    4.9628  -22.7423 N   0  0  0  0  0  0  0  0  0  0  0  0
 30 31  1  0  0  0
 31 32  1  0  0  0
 32 33  2  0  0  0
 33 29  1  0  0  0
 29  1  1  0  0  0
  1  2  1  0  0  0
  3  2  1  0  0  0
  3  4  1  0  0  0
  4  5  2  0  0  0
  4  6  1  0  0  0
  6 19  1  0  0  0
 19 20  2  0  0  0
 20 21  1  0  0  0
 21 22  2  0  0  0
 22 23  1  0  0  0
 23 24  2  0  0  0
 24 25  1  0  0  0
 25 26  2  0  0  0
 26 27  1  0  0  0
 27 28  2  0  0  0
  6  7  1  0  0  0
  7  8  1  0  0  0
  8  9  1  0  0  0
  3 10  1  0  0  0
 10 11  2  0  0  0
 11 12  1  0  0  0
 12 13  1  0  0  0
 12 14  2  0  0  0
 14 15  1  0  0  0
 15 16  2  0  0  0
 16 17  1  0  0  0
 17 18  2  0  0  0
 33 34  1  0  0  0
 34 35  1  0  0  0
 35 31  2  0  0  0
 17  1  1  0  0  0
  8  3  1  0  0  0
 16 10  1  0  0  0
 28 19  1  0  0  0
 28 23  1  0  0  0
M  END
> <minimizedAffinity>
-7.88469

> <CNNscore>
0.3873739839

> <CNNaffinity>
6.4533262253

> <CNN_VS>
2.4998507500

> <CNNaffinity_variance>
0.1093294024

$$$$



 35 40  0  0  0  0  0  0  0  0999 V2000
   -6.9843   -0.5384  -22.4718 N   0  0  0  0  0  0  0  0  0  0  0  0
   -7.3120    0.8728  -22.8603 C   0  0  0  0  0  0  0  0  0  0  0  0
   -8.7190    1.2427  -23.2255 C   0  0  0  0  0  0  0  0  0  0  0  0
  -10.0730    1.7586  -23.6137 C   0  0  0  0  0  0  0  0  0  0  0  0
  -11.2145    1.3657  -23.7513 O   0  0  0  0  0  0  0  0  0  0  0  0
   -9.9411    3.2206  -23.9221 N   0  0  0  0  0  0  0  0  0  0  0  0
   -8.5056    3.6083  -23.7247 C   0  0  0  0  0  0  0  0  0  0  0  0
   -7.7503    2.3859  -23.2942 C   0  0  0  0  0  0  0  0  0  0  0  0
   -6.2838    2.3186  -22.9863 C   0  0  0  0  0  0  0  0  0  0  0  0
   -9.7984    0.2013  -23.2023 C   0  0  0  0  0  0  0  0  0  0  0  0
  -11.2054    0.5712  -23.5676 C   0  0  0  0  0  0  0  0  0  0  0  0
  -12.2847   -0.4702  -23.5443 C   0  0  0  0  0  0  0  0  0  0  0  0
  -13.6918   -0.1003  -23.9096 F   0  0  0  0  0  0  0  0  0  0  0  0
  -11.9570   -1.8814  -23.1558 C   0  0  0  0  0  0  0  0  0  0  0  0
  -10.5500   -2.2513  -22.7906 C   0  0  0  0  0  0  0  0  0  0  0  0
   -9.4707   -1.2099  -22.8138 C   0  0  0  0  0  0  0  0  0  0  0  0
   -8.0636   -1.5798  -22.4485 C   0  0  0  0  0  0  0  0  0  0  0  0
   -7.7359   -2.9911  -22.0600 O   0  0  0  0  0  0  0  0  0  0  0  0
  -11.0500    4.1345  -24.3525 C   0  0  0  0  0  0  0  0  0  0  0  0
  -11.9838    4.7133  -23.3313 C   0  0  0  0  0  0  0  0  0  0  0  0
  -13.0928    5.6272  -23.7617 N   0  0  0  0  0  0  0  0  0  0  0  0
  -13.2678    5.9621  -25.2133 C   0  0  0  0  0  0  0  0  0  0  0  0
  -12.3340    5.3832  -26.2345 C   0  0  0  0  0  0  0  0  0  0  0  0
  -12.5091    5.7182  -27.6861 C   0  0  0  0  0  0  0  0  0  0  0  0
  -11.5752    5.1393  -28.7073 C   0  0  0  0  0  0  0  0  0  0  0  0
  -10.4663    4.2254  -28.2769 C   0  0  0  0  0  0  0  0  0  0  0  0
  -10.2912    3.8905  -26.8253 C   0  0  0  0  0  0  0  0  0  0  0  0
  -11.2251    4.4694  -25.8041 C   0  0  0  0  0  0  0  0  0  0  0  0
   -5.5772   -0.9083  -22.1065 C   0  0  0  0  0  0  0  0  0  0  0  0
   -1.8425    2.1414  -19.9543 C   0  0  0  0  0  0  0  0  0  0  0  0
   -3.0934    1.3349  -20.1407 C   0  0  0  0  0  0  0  0  0  0  0  0
   -3.4917    0.6009  -21.3868 C   0  0  0  0  0  0  0  0  0  0  0  0
   -4.8100   -0.0669  -21.1300 C   0  0  0  0  0  0  0  0  0  0  0  0
   -5.2266    0.2544  -19.7252 O   0  0  0  0  0  0  0  0  0  0  0  0
   -4.1656    1.1208  -19.1139 N   0  0  0  0  0  0  0  0  0  0  0  0
 30 31  1  0  0  0
 31 32  1  0  0  0
 32 33  2  0  0  0
 33 29  1  0  0  0
 29  1  1  0  0  0
  1  2  1  0  0  0
  3  2  1  0  0  0
  3  4  1  0  0  0
  4  5  2  0  0  0
  4  6  1  0  0  0
  6 19  1  0  0  0
 19 20  2  0  0  0
 20 21  1  0  0  0
 21 22  2  0  0  0
 22 23  1  0  0  0
 23 24  2  0  0  0
 24 25  1  0  0  0
 25 26  2  0  0  0
 26 27  1  0  0  0
 27 28  2  0  0  0
  6  7  1  0  0  0
  7  8  1  0  0  0
  8  9  1  0  0  0
  3 10  1  0  0  0
 10 11  2  0  0  0
 11 12  1  0  0  0
 12 13  1  0  0  0
 12 14  2  0  0  0
 14 15  1  0  0  0
 15 16  2  0  0  0
 16 17  1  0  0  0
 17 18  2  0  0  0
 33 34  1  0  0  0
 34 35  1  0  0  0
 35 31  2  0  0  0
 17  1  1  0  0  0
  8  3  1  0  0  0
 16 10  1  0  0  0
 28 19  1  0  0  0
 28 23  1  0  0  0
M  END
> <minimizedAffinity>
-8.56336

> <CNNscore>
0.2779902518

> <CNNaffinity>
6.1052308083

> <CNN_VS>
1.6971946955

> <CNNaffinity_variance>
0.1304402351

$$$$



 35 40  0  0  0  0  0  0  0  0999 V2000
   -8.3235   -3.2320  -23.0288 N   0  0  0  0  0  0  0  0  0  0  0  0
   -9.5933   -2.4657  -23.2534 C   0  0  0  0  0  0  0  0  0  0  0  0
   -9.6135   -0.9772  -23.0699 C   0  0  0  0  0  0  0  0  0  0  0  0
   -9.7855    0.5059  -22.9256 C   0  0  0  0  0  0  0  0  0  0  0  0
   -9.1402    1.4941  -22.6369 O   0  0  0  0  0  0  0  0  0  0  0  0
  -11.2125    0.8403  -23.2449 N   0  0  0  0  0  0  0  0  0  0  0  0
  -11.9224   -0.4362  -23.5865 C   0  0  0  0  0  0  0  0  0  0  0  0
  -10.9341   -1.5594  -23.4784 C   0  0  0  0  0  0  0  0  0  0  0  0
  -11.2169   -3.0102  -23.7338 C   0  0  0  0  0  0  0  0  0  0  0  0
   -8.3638   -0.2548  -22.6618 C   0  0  0  0  0  0  0  0  0  0  0  0
   -8.3839    1.2338  -22.4783 C   0  0  0  0  0  0  0  0  0  0  0  0
   -7.1343    1.9561  -22.0701 C   0  0  0  0  0  0  0  0  0  0  0  0
   -7.1543    3.4447  -21.8866 F   0  0  0  0  0  0  0  0  0  0  0  0
   -5.8645    1.1898  -21.8454 C   0  0  0  0  0  0  0  0  0  0  0  0
   -5.8443   -0.2988  -22.0289 C   0  0  0  0  0  0  0  0  0  0  0  0
   -7.0940   -1.0211  -22.4371 C   0  0  0  0  0  0  0  0  0  0  0  0
   -7.0739   -2.5097  -22.6206 C   0  0  0  0  0  0  0  0  0  0  0  0
   -5.8041   -3.2760  -22.3960 O   0  0  0  0  0  0  0  0  0  0  0  0
  -11.8225    2.2105  -23.2258 C   0  0  0  0  0  0  0  0  0  0  0  0
  -12.8912    2.5419  -22.2267 C   0  0  0  0  0  0  0  0  0  0  0  0
  -13.5012    3.9122  -22.2077 N   0  0  0  0  0  0  0  0  0  0  0  0
  -13.0425    4.9510  -23.1877 C   0  0  0  0  0  0  0  0  0  0  0  0
  -11.9738    4.6195  -24.1868 C   0  0  0  0  0  0  0  0  0  0  0  0
  -11.5151    5.6584  -25.1669 C   0  0  0  0  0  0  0  0  0  0  0  0
  -10.4465    5.3269  -26.1659 C   0  0  0  0  0  0  0  0  0  0  0  0
   -9.8365    3.9567  -26.1849 C   0  0  0  0  0  0  0  0  0  0  0  0
  -10.2952    2.9179  -25.2049 C   0  0  0  0  0  0  0  0  0  0  0  0
  -11.3638    3.2493  -24.2058 C   0  0  0  0  0  0  0  0  0  0  0  0
   -8.3034   -4.7207  -23.2123 C   0  0  0  0  0  0  0  0  0  0  0  0
   -3.7446   -7.0912  -24.4281 C   0  0  0  0  0  0  0  0  0  0  0  0
   -4.9158   -6.5630  -23.6540 C   0  0  0  0  0  0  0  0  0  0  0  0
   -6.0786   -5.8047  -24.2222 C   0  0  0  0  0  0  0  0  0  0  0  0
   -7.0113   -5.4734  -23.0952 C   0  0  0  0  0  0  0  0  0  0  0  0
   -6.4249   -6.0270  -21.8303 O   0  0  0  0  0  0  0  0  0  0  0  0
   -5.1298   -6.7004  -22.1758 N   0  0  0  0  0  0  0  0  0  0  0  0
 30 31  1  0  0  0
 31 32  1  0  0  0
 32 33  2  0  0  0
 33 29  1  0  0  0
 29  1  1  0  0  0
  1  2  1  0  0  0
  3  2  1  0  0  0
  3  4  1  0  0  0
  4  5  2  0  0  0
  4  6  1  0  0  0
  6 19  1  0  0  0
 19 20  2  0  0  0
 20 21  1  0  0  0
 21 22  2  0  0  0
 22 23  1  0  0  0
 23 24  2  0  0  0
 24 25  1  0  0  0
 25 26  2  0  0  0
 26 27  1  0  0  0
 27 28  2  0  0  0
  6  7  1  0  0  0
  7  8  1  0  0  0
  8  9  1  0  0  0
  3 10  1  0  0  0
 10 11  2  0  0  0
 11 12  1  0  0  0
 12 13  1  0  0  0
 12 14  2  0  0  0
 14 15  1  0  0  0
 15 16  2  0  0  0
 16 17  1  0  0  0
 17 18  2  0  0  0
 33 34  1  0  0  0
 34 35  1  0  0  0
 35 31  2  0  0  0
 17  1  1  0  0  0
  8  3  1  0  0  0
 16 10  1  0  0  0
 28 19  1  0  0  0
 28 23  1  0  0  0
M  END
> <minimizedAffinity>
-8.27317

> <CNNscore>
0.2477192581

> <CNNaffinity>
6.2340054512

> <CNN_VS>
1.5442831516

> <CNNaffinity_variance>
0.1379867494

$$$$



 35 40  0  0  0  0  0  0  0  0999 V2000
   -6.4931   -0.5028  -22.5821 N   0  0  0  0  0  0  0  0  0  0  0  0
   -6.7469    0.7810  -23.3152 C   0  0  0  0  0  0  0  0  0  0  0  0
   -8.1292    1.1091  -23.7964 C   0  0  0  0  0  0  0  0  0  0  0  0
   -9.4511    1.5706  -24.3345 C   0  0  0  0  0  0  0  0  0  0  0  0
  -10.6081    1.2054  -24.4001 O   0  0  0  0  0  0  0  0  0  0  0  0
   -9.2447    2.9036  -24.9908 N   0  0  0  0  0  0  0  0  0  0  0  0
   -7.7951    3.2658  -24.8583 C   0  0  0  0  0  0  0  0  0  0  0  0
   -7.1058    2.1568  -24.1202 C   0  0  0  0  0  0  0  0  0  0  0  0
   -5.6487    2.1047  -23.7677 C   0  0  0  0  0  0  0  0  0  0  0  0
   -9.2577    0.1534  -23.5446 C   0  0  0  0  0  0  0  0  0  0  0  0
  -10.6399    0.4816  -24.0258 C   0  0  0  0  0  0  0  0  0  0  0  0
  -11.7683   -0.4741  -23.7740 C   0  0  0  0  0  0  0  0  0  0  0  0
  -13.1506   -0.1459  -24.2552 F   0  0  0  0  0  0  0  0  0  0  0  0
  -11.5144   -1.7579  -23.0409 C   0  0  0  0  0  0  0  0  0  0  0  0
  -10.1321   -2.0860  -22.5597 C   0  0  0  0  0  0  0  0  0  0  0  0
   -9.0038   -1.1304  -22.8115 C   0  0  0  0  0  0  0  0  0  0  0  0
   -7.6214   -1.4585  -22.3303 C   0  0  0  0  0  0  0  0  0  0  0  0
   -7.3675   -2.7423  -21.5972 O   0  0  0  0  0  0  0  0  0  0  0  0
  -10.3021    3.7292  -25.6617 C   0  0  0  0  0  0  0  0  0  0  0  0
  -10.2593    3.9404  -27.1461 C   0  0  0  0  0  0  0  0  0  0  0  0
  -11.3167    4.7661  -27.8170 N   0  0  0  0  0  0  0  0  0  0  0  0
  -12.4170    5.3805  -27.0035 C   0  0  0  0  0  0  0  0  0  0  0  0
  -12.4598    5.1692  -25.5190 C   0  0  0  0  0  0  0  0  0  0  0  0
  -13.5602    5.7837  -24.7055 C   0  0  0  0  0  0  0  0  0  0  0  0
  -13.6030    5.5724  -23.2210 C   0  0  0  0  0  0  0  0  0  0  0  0
  -12.5455    4.7467  -22.5501 C   0  0  0  0  0  0  0  0  0  0  0  0
  -11.4452    4.1323  -23.3637 C   0  0  0  0  0  0  0  0  0  0  0  0
  -11.4024    4.3436  -24.8481 C   0  0  0  0  0  0  0  0  0  0  0  0
   -5.1107   -0.8310  -22.1009 C   0  0  0  0  0  0  0  0  0  0  0  0
   -1.6883    2.5769  -19.9668 C   0  0  0  0  0  0  0  0  0  0  0  0
   -2.8481    1.6425  -20.1442 C   0  0  0  0  0  0  0  0  0  0  0  0
   -3.1873    0.8854  -21.3939 C   0  0  0  0  0  0  0  0  0  0  0  0
   -4.4213    0.0760  -21.1251 C   0  0  0  0  0  0  0  0  0  0  0  0
   -4.8448    0.3329  -19.7092 O   0  0  0  0  0  0  0  0  0  0  0  0
   -3.8725    1.3011  -19.1030 N   0  0  0  0  0  0  0  0  0  0  0  0
 30 31  1  0  0  0
 31 32  1  0  0  0
 32 33  2  0  0  0
 33 29  1  0  0  0
 29  1  1  0  0  0
  1  2  1  0  0  0
  3  2  1  0  0  0
  3  4  1  0  0  0
  4  5  2  0  0  0
  4  6  1  0  0  0
  6 19  1  0  0  0
 19 20  2  0  0  0
 20 21  1  0  0  0
 21 22  2  0  0  0
 22 23  1  0  0  0
 23 24  2  0  0  0
 24 25  1  0  0  0
 25 26  2  0  0  0
 26 27  1  0  0  0
 27 28  2  0  0  0
  6  7  1  0  0  0
  7  8  1  0  0  0
  8  9  1  0  0  0
  3 10  1  0  0  0
 10 11  2  0  0  0
 11 12  1  0  0  0
 12 13  1  0  0  0
 12 14  2  0  0  0
 14 15  1  0  0  0
 15 16  2  0  0  0
 16 17  1  0  0  0
 17 18  2  0  0  0
 33 34  1  0  0  0
 34 35  1  0  0  0
 35 31  2  0  0  0
 17  1  1  0  0  0
  8  3  1  0  0  0
 16 10  1  0  0  0
 28 19  1  0  0  0
 28 23  1  0  0  0
M  END
> <minimizedAffinity>
-8.29836

> <CNNscore>
0.2252544612

> <CNNaffinity>
6.0060892105

> <CNN_VS>
1.3528983593

> <CNNaffinity_variance>
0.1506288350

$$$$



 35 40  0  0  0  0  0  0  0  0999 V2000
   -9.2702   -2.0532  -23.3383 N   0  0  0  0  0  0  0  0  0  0  0  0
   -7.9085   -2.0774  -22.7097 C   0  0  0  0  0  0  0  0  0  0  0  0
   -7.1596   -0.7959  -22.4931 C   0  0  0  0  0  0  0  0  0  0  0  0
   -6.2956    0.3983  -22.2148 C   0  0  0  0  0  0  0  0  0  0  0  0
   -6.3091    1.6067  -22.3414 O   0  0  0  0  0  0  0  0  0  0  0  0
   -5.0248   -0.0862  -21.5822 N   0  0  0  0  0  0  0  0  0  0  0  0
   -5.1033   -1.5799  -21.4694 C   0  0  0  0  0  0  0  0  0  0  0  0
   -6.4227   -2.0185  -22.0324 C   0  0  0  0  0  0  0  0  0  0  0  0
   -6.9182   -3.4316  -22.1194 C   0  0  0  0  0  0  0  0  0  0  0  0
   -7.7725    0.5098  -22.9050 C   0  0  0  0  0  0  0  0  0  0  0  0
   -7.0236    1.7913  -22.6884 C   0  0  0  0  0  0  0  0  0  0  0  0
   -7.6364    3.0969  -23.1003 C   0  0  0  0  0  0  0  0  0  0  0  0
   -6.8876    4.3784  -22.8836 F   0  0  0  0  0  0  0  0  0  0  0  0
   -8.9982    3.1210  -23.7289 C   0  0  0  0  0  0  0  0  0  0  0  0
   -9.7470    1.8396  -23.9455 C   0  0  0  0  0  0  0  0  0  0  0  0
   -9.1342    0.5340  -23.5336 C   0  0  0  0  0  0  0  0  0  0  0  0
   -9.8831   -0.7476  -23.7502 C   0  0  0  0  0  0  0  0  0  0  0  0
  -11.2448   -0.7235  -24.3788 O   0  0  0  0  0  0  0  0  0  0  0  0
   -3.8770    0.7722  -21.1399 C   0  0  0  0  0  0  0  0  0  0  0  0
   -3.8449    1.3208  -19.7442 C   0  0  0  0  0  0  0  0  0  0  0  0
   -2.6971    2.1793  -19.3020 N   0  0  0  0  0  0  0  0  0  0  0  0
   -1.5814    2.4892  -20.2555 C   0  0  0  0  0  0  0  0  0  0  0  0
   -1.6135    1.9406  -21.6512 C   0  0  0  0  0  0  0  0  0  0  0  0
   -0.4978    2.2505  -22.6047 C   0  0  0  0  0  0  0  0  0  0  0  0
   -0.5300    1.7019  -24.0005 C   0  0  0  0  0  0  0  0  0  0  0  0
   -1.6778    0.8435  -24.4427 C   0  0  0  0  0  0  0  0  0  0  0  0
   -2.7935    0.5336  -23.4892 C   0  0  0  0  0  0  0  0  0  0  0  0
   -2.7613    1.0821  -22.0935 C   0  0  0  0  0  0  0  0  0  0  0  0
  -10.0191   -3.3348  -23.5549 C   0  0  0  0  0  0  0  0  0  0  0  0
   -9.3012   -6.0404  -28.0321 C   0  0  0  0  0  0  0  0  0  0  0  0
   -9.1868   -5.5814  -26.6087 C   0  0  0  0  0  0  0  0  0  0  0  0
   -9.9384   -4.4421  -25.9865 C   0  0  0  0  0  0  0  0  0  0  0  0
   -9.5168   -4.3378  -24.5507 C   0  0  0  0  0  0  0  0  0  0  0  0
   -8.5046   -5.4127  -24.2856 O   0  0  0  0  0  0  0  0  0  0  0  0
   -8.3007   -6.1813  -25.5575 N   0  0  0  0  0  0  0  0  0  0  0  0
 30 31  1  0  0  0
 31 32  1  0  0  0
 32 33  2  0  0  0
 33 29  1  0  0  0
 29  1  1  0  0  0
  1  2  1  0  0  0
  3  2  1  0  0  0
  3  4  1  0  0  0
  4  5  2  0  0  0
  4  6  1  0  0  0
  6 19  1  0  0  0
 19 20  2  0  0  0
 20 21  1  0  0  0
 21 22  2  0  0  0
 22 23  1  0  0  0
 23 24  2  0  0  0
 24 25  1  0  0  0
 25 26  2  0  0  0
 26 27  1  0  0  0
 27 28  2  0  0  0
  6  7  1  0  0  0
  7  8  1  0  0  0
  8  9  1  0  0  0
  3 10  1  0  0  0
 10 11  2  0  0  0
 11 12  1  0  0  0
 12 13  1  0  0  0
 12 14  2  0  0  0
 14 15  1  0  0  0
 15 16  2  0  0  0
 16 17  1  0  0  0
 17 18  2  0  0  0
 33 34  1  0  0  0
 34 35  1  0  0  0
 35 31  2  0  0  0
 17  1  1  0  0  0
  8  3  1  0  0  0
 16 10  1  0  0  0
 28 19  1  0  0  0
 28 23  1  0  0  0
M  END
> <minimizedAffinity>
-7.62678

> <CNNscore>
0.2251451463

> <CNNaffinity>
6.0941643715

> <CNN_VS>
1.3720715046

> <CNNaffinity_variance>
0.1595370471

$$$$
