


 35 40  0  0  0  0  0  0  0  0999 V2000
   10.7662   -0.2980   22.8983 N   0  0  0  0  0  0  0  0  0  0  0  0
    9.5149   -1.1047   22.7160 C   0  0  0  0  0  0  0  0  0  0  0  0
    9.2769   -2.3210   23.5610 C   0  0  0  0  0  0  0  0  0  0  0  0
    8.9035   -3.5546   24.3283 C   0  0  0  0  0  0  0  0  0  0  0  0
    9.3360   -4.2676   25.2121 O   0  0  0  0  0  0  0  0  0  0  0  0
    7.5751   -4.0319   23.8209 N   0  0  0  0  0  0  0  0  0  0  0  0
    7.1274   -3.0932   22.7400 C   0  0  0  0  0  0  0  0  0  0  0  0
    8.1791   -2.0358   22.5794 C   0  0  0  0  0  0  0  0  0  0  0  0
    8.1400   -0.8938   21.6077 C   0  0  0  0  0  0  0  0  0  0  0  0
   10.2903   -2.7306   24.5883 C   0  0  0  0  0  0  0  0  0  0  0  0
   10.0524   -3.9469   25.4332 C   0  0  0  0  0  0  0  0  0  0  0  0
   11.0658   -4.3565   26.4604 C   0  0  0  0  0  0  0  0  0  0  0  0
   10.8278   -5.5728   27.3055 F   0  0  0  0  0  0  0  0  0  0  0  0
   12.3171   -3.5497   26.6427 C   0  0  0  0  0  0  0  0  0  0  0  0
   12.5551   -2.3334   25.7978 C   0  0  0  0  0  0  0  0  0  0  0  0
   11.5417   -1.9239   24.7706 C   0  0  0  0  0  0  0  0  0  0  0  0
   11.7796   -0.7075   23.9256 C   0  0  0  0  0  0  0  0  0  0  0  0
   13.0310    0.0992   24.1079 O   0  0  0  0  0  0  0  0  0  0  0  0
    6.8259   -5.2363   24.3088 C   0  0  0  0  0  0  0  0  0  0  0  0
    7.2333   -6.6071   23.8563 C   0  0  0  0  0  0  0  0  0  0  0  0
    6.4841   -7.8116   24.3442 N   0  0  0  0  0  0  0  0  0  0  0  0
    5.3275   -7.6451   25.2846 C   0  0  0  0  0  0  0  0  0  0  0  0
    4.9200   -6.2743   25.7371 C   0  0  0  0  0  0  0  0  0  0  0  0
    3.7632   -6.1079   26.6775 C   0  0  0  0  0  0  0  0  0  0  0  0
    3.3558   -4.7370   27.1300 C   0  0  0  0  0  0  0  0  0  0  0  0
    4.1050   -3.5326   26.6421 C   0  0  0  0  0  0  0  0  0  0  0  0
    5.2617   -3.6990   25.7017 C   0  0  0  0  0  0  0  0  0  0  0  0
    5.6692   -5.0698   25.2492 C   0  0  0  0  0  0  0  0  0  0  0  0
   11.0042    0.9184   22.0533 C   0  0  0  0  0  0  0  0  0  0  0  0
   10.4417    6.0707   23.0622 C   0  0  0  0  0  0  0  0  0  0  0  0
   10.1543    4.6056   22.9178 C   0  0  0  0  0  0  0  0  0  0  0  0
   11.1194    3.5604   22.4421 C   0  0  0  0  0  0  0  0  0  0  0  0
   10.4128    2.2373   22.4541 C   0  0  0  0  0  0  0  0  0  0  0  0
    9.0110    2.4648   22.9371 O   0  0  0  0  0  0  0  0  0  0  0  0
    8.8513    3.9285   23.2237 N   0  0  0  0  0  0  0  0  0  0  0  0
 30 31  1  0  0  0
 31 32  1  0  0  0
 32 33  2  0  0  0
 33 29  1  0  0  0
 29  1  1  0  0  0
  1  2  1  0  0  0
  3  2  1  0  0  0
  3  4  1  0  0  0
  4  5  2  0  0  0
  4  6  1  0  0  0
  6 19  1  0  0  0
 19 20  2  0  0  0
 20 21  1  0  0  0
 21 22  2  0  0  0
 22 23  1  0  0  0
 23 24  2  0  0  0
 24 25  1  0  0  0
 25 26  2  0  0  0
 26 27  1  0  0  0
 27 28  2  0  0  0
  6  7  1  0  0  0
  7  8  1  0  0  0
  8  9  1  0  0  0
  3 10  1  0  0  0
 10 11  2  0  0  0
 11 12  1  0  0  0
 12 13  1  0  0  0
 12 14  2  0  0  0
 14 15  1  0  0  0
 15 16  2  0  0  0
 16 17  1  0  0  0
 17 18  2  0  0  0
 33 34  1  0  0  0
 34 35  1  0  0  0
 35 31  2  0  0  0
 17  1  1  0  0  0
  8  3  1  0  0  0
 16 10  1  0  0  0
 28 19  1  0  0  0
 28 23  1  0  0  0
M  END
> <minimizedAffinity>
-8.78433

> <CNNscore>
0.3876057267

> <CNNaffinity>
6.7378807068

> <CNN_VS>
2.6116411686

> <CNNaffinity_variance>
0.1201628894

$$$$



 35 40  0  0  0  0  0  0  0  0999 V2000
    9.6335    0.4351   23.8148 N   0  0  0  0  0  0  0  0  0  0  0  0
    8.2713   -0.0963   24.1495 C   0  0  0  0  0  0  0  0  0  0  0  0
    8.1320   -1.2966   25.0381 C   0  0  0  0  0  0  0  0  0  0  0  0
    7.8375   -2.4821   25.9086 C   0  0  0  0  0  0  0  0  0  0  0  0
    8.4200   -3.3242   26.5628 O   0  0  0  0  0  0  0  0  0  0  0  0
    6.3486   -2.6540   25.9696 N   0  0  0  0  0  0  0  0  0  0  0  0
    5.7229   -1.5748   25.1367 C   0  0  0  0  0  0  0  0  0  0  0  0
    6.8252   -0.7359   24.5610 C   0  0  0  0  0  0  0  0  0  0  0  0
    6.6510    0.4548   23.6655 C   0  0  0  0  0  0  0  0  0  0  0  0
    9.3550   -1.9657   25.5921 C   0  0  0  0  0  0  0  0  0  0  0  0
    9.2157   -3.1660   26.4807 C   0  0  0  0  0  0  0  0  0  0  0  0
   10.4387   -3.8350   27.0346 C   0  0  0  0  0  0  0  0  0  0  0  0
   10.2995   -5.0354   27.9233 F   0  0  0  0  0  0  0  0  0  0  0  0
   11.8009   -3.3035   26.7000 C   0  0  0  0  0  0  0  0  0  0  0  0
   11.9401   -2.1032   25.8113 C   0  0  0  0  0  0  0  0  0  0  0  0
   10.7172   -1.4342   25.2574 C   0  0  0  0  0  0  0  0  0  0  0  0
   10.8564   -0.2338   24.3687 C   0  0  0  0  0  0  0  0  0  0  0  0
   12.2186    0.2976   24.0340 O   0  0  0  0  0  0  0  0  0  0  0  0
    5.6144   -3.7183   26.7299 C   0  0  0  0  0  0  0  0  0  0  0  0
    5.2650   -5.0137   26.0590 C   0  0  0  0  0  0  0  0  0  0  0  0
    4.5308   -6.0780   26.8194 N   0  0  0  0  0  0  0  0  0  0  0  0
    4.1459   -5.8470   28.2506 C   0  0  0  0  0  0  0  0  0  0  0  0
    4.4952   -4.5516   28.9215 C   0  0  0  0  0  0  0  0  0  0  0  0
    4.1103   -4.3206   30.3528 C   0  0  0  0  0  0  0  0  0  0  0  0
    4.4597   -3.0252   31.0236 C   0  0  0  0  0  0  0  0  0  0  0  0
    5.1940   -1.9609   30.2633 C   0  0  0  0  0  0  0  0  0  0  0  0
    5.5788   -2.1920   28.8320 C   0  0  0  0  0  0  0  0  0  0  0  0
    5.2295   -3.4873   28.1611 C   0  0  0  0  0  0  0  0  0  0  0  0
    9.7727    1.6356   22.9261 C   0  0  0  0  0  0  0  0  0  0  0  0
    5.6904    4.8267   21.9102 C   0  0  0  0  0  0  0  0  0  0  0  0
    6.6819    3.7051   21.8171 C   0  0  0  0  0  0  0  0  0  0  0  0
    7.8320    3.4652   22.7498 C   0  0  0  0  0  0  0  0  0  0  0  0
    8.5584    2.2382   22.2840 C   0  0  0  0  0  0  0  0  0  0  0  0
    7.8573    1.7197   21.0635 O   0  0  0  0  0  0  0  0  0  0  0  0
    6.6975    2.6263   20.7750 N   0  0  0  0  0  0  0  0  0  0  0  0
 30 31  1  0  0  0
 31 32  1  0  0  0
 32 33  2  0  0  0
 33 29  1  0  0  0
 29  1  1  0  0  0
  1  2  1  0  0  0
  3  2  1  0  0  0
  3  4  1  0  0  0
  4  5  2  0  0  0
  4  6  1  0  0  0
  6 19  1  0  0  0
 19 20  2  0  0  0
 20 21  1  0  0  0
 21 22  2  0  0  0
 22 23  1  0  0  0
 23 24  2  0  0  0
 24 25  1  0  0  0
 25 26  2  0  0  0
 26 27  1  0  0  0
 27 28  2  0  0  0
  6  7  1  0  0  0
  7  8  1  0  0  0
  8  9  1  0  0  0
  3 10  1  0  0  0
 10 11  2  0  0  0
 11 12  1  0  0  0
 12 13  1  0  0  0
 12 14  2  0  0  0
 14 15  1  0  0  0
 15 16  2  0  0  0
 16 17  1  0  0  0
 17 18  2  0  0  0
 33 34  1  0  0  0
 34 35  1  0  0  0
 35 31  2  0  0  0
 17  1  1  0  0  0
  8  3  1  0  0  0
 16 10  1  0  0  0
 28 19  1  0  0  0
 28 23  1  0  0  0
M  END
> <minimizedAffinity>
-7.60916

> <CNNscore>
0.3415693939

> <CNNaffinity>
6.3830575943

> <CNN_VS>
2.1802570820

> <CNNaffinity_variance>
0.3218866587

$$$$



 35 40  0  0  0  0  0  0  0  0999 V2000
   10.5326    0.2715   23.2271 N   0  0  0  0  0  0  0  0  0  0  0  0
    9.1304   -0.2320   23.4014 C   0  0  0  0  0  0  0  0  0  0  0  0
    8.8533   -1.3705   24.3378 C   0  0  0  0  0  0  0  0  0  0  0  0
    8.4252   -2.4948   25.2336 C   0  0  0  0  0  0  0  0  0  0  0  0
    8.9000   -3.2939   26.0162 O   0  0  0  0  0  0  0  0  0  0  0  0
    6.9403   -2.6572   25.0964 N   0  0  0  0  0  0  0  0  0  0  0  0
    6.4507   -1.6332   24.1157 C   0  0  0  0  0  0  0  0  0  0  0  0
    7.6330   -0.8380   23.6469 C   0  0  0  0  0  0  0  0  0  0  0  0
    7.6007    0.2915   22.6603 C   0  0  0  0  0  0  0  0  0  0  0  0
    9.9784   -2.0056   25.1000 C   0  0  0  0  0  0  0  0  0  0  0  0
    9.7013   -3.1441   26.0364 C   0  0  0  0  0  0  0  0  0  0  0  0
   10.8264   -3.7792   26.7985 C   0  0  0  0  0  0  0  0  0  0  0  0
   10.5493   -4.9178   27.7350 F   0  0  0  0  0  0  0  0  0  0  0  0
   12.2286   -3.2757   26.6242 C   0  0  0  0  0  0  0  0  0  0  0  0
   12.5057   -2.1372   25.6878 C   0  0  0  0  0  0  0  0  0  0  0  0
   11.3806   -1.5022   24.9256 C   0  0  0  0  0  0  0  0  0  0  0  0
   11.6577   -0.3636   23.9892 C   0  0  0  0  0  0  0  0  0  0  0  0
   13.0599    0.1399   23.8148 O   0  0  0  0  0  0  0  0  0  0  0  0
    6.0937   -3.6664   25.8139 C   0  0  0  0  0  0  0  0  0  0  0  0
    5.7048   -4.9426   25.1281 C   0  0  0  0  0  0  0  0  0  0  0  0
    4.8582   -5.9518   25.8455 N   0  0  0  0  0  0  0  0  0  0  0  0
    4.4005   -5.6848   27.2488 C   0  0  0  0  0  0  0  0  0  0  0  0
    4.7894   -4.4087   27.9346 C   0  0  0  0  0  0  0  0  0  0  0  0
    4.3317   -4.1418   29.3380 C   0  0  0  0  0  0  0  0  0  0  0  0
    4.7206   -2.8657   30.0237 C   0  0  0  0  0  0  0  0  0  0  0  0
    5.5672   -1.8565   29.3062 C   0  0  0  0  0  0  0  0  0  0  0  0
    6.0249   -2.1234   27.9030 C   0  0  0  0  0  0  0  0  0  0  0  0
    5.6360   -3.3995   27.2172 C   0  0  0  0  0  0  0  0  0  0  0  0
   10.8097    1.4101   22.2906 C   0  0  0  0  0  0  0  0  0  0  0  0
   10.8118    6.6303   23.0840 C   0  0  0  0  0  0  0  0  0  0  0  0
   10.3708    5.1985   23.0124 C   0  0  0  0  0  0  0  0  0  0  0  0
   11.2081    4.0396   22.5585 C   0  0  0  0  0  0  0  0  0  0  0  0
   10.3698    2.7989   22.6477 C   0  0  0  0  0  0  0  0  0  0  0  0
    9.0143    3.1910   23.1568 O   0  0  0  0  0  0  0  0  0  0  0  0
    9.0150    4.6740   23.3822 N   0  0  0  0  0  0  0  0  0  0  0  0
 30 31  1  0  0  0
 31 32  1  0  0  0
 32 33  2  0  0  0
 33 29  1  0  0  0
 29  1  1  0  0  0
  1  2  1  0  0  0
  3  2  1  0  0  0
  3  4  1  0  0  0
  4  5  2  0  0  0
  4  6  1  0  0  0
  6 19  1  0  0  0
 19 20  2  0  0  0
 20 21  1  0  0  0
 21 22  2  0  0  0
 22 23  1  0  0  0
 23 24  2  0  0  0
 24 25  1  0  0  0
 25 26  2  0  0  0
 26 27  1  0  0  0
 27 28  2  0  0  0
  6  7  1  0  0  0
  7  8  1  0  0  0
  8  9  1  0  0  0
  3 10  1  0  0  0
 10 11  2  0  0  0
 11 12  1  0  0  0
 12 13  1  0  0  0
 12 14  2  0  0  0
 14 15  1  0  0  0
 15 16  2  0  0  0
 16 17  1  0  0  0
 17 18  2  0  0  0
 33 34  1  0  0  0
 34 35  1  0  0  0
 35 31  2  0  0  0
 17  1  1  0  0  0
  8  3  1  0  0  0
 16 10  1  0  0  0
 28 19  1  0  0  0
 28 23  1  0  0  0
M  END
> <minimizedAffinity>
-7.91602

> <CNNscore>
0.3209787607

> <CNNaffinity>
6.5746831894

> <CNN_VS>
2.1103336811

> <CNNaffinity_variance>
0.1476856768

$$$$



 35 40  0  0  0  0  0  0  0  0999 V2000
    7.8408   -1.5040   24.3272 N   0  0  0  0  0  0  0  0  0  0  0  0
    7.7241   -0.0206   24.1382 C   0  0  0  0  0  0  0  0  0  0  0  0
    8.9225    0.7789   23.7205 C   0  0  0  0  0  0  0  0  0  0  0  0
   10.0280    1.7048   23.3074 C   0  0  0  0  0  0  0  0  0  0  0  0
   11.2074    1.6749   23.0165 O   0  0  0  0  0  0  0  0  0  0  0  0
    9.4685    3.0950   23.2430 N   0  0  0  0  0  0  0  0  0  0  0  0
    8.0172    3.0284   23.6162 C   0  0  0  0  0  0  0  0  0  0  0  0
    7.6798    1.5969   23.9113 C   0  0  0  0  0  0  0  0  0  0  0  0
    6.3356    1.0751   24.3246 C   0  0  0  0  0  0  0  0  0  0  0  0
   10.2378    0.0949   23.4917 C   0  0  0  0  0  0  0  0  0  0  0  0
   11.4363    0.8943   23.0740 C   0  0  0  0  0  0  0  0  0  0  0  0
   12.7515    0.2103   22.8453 C   0  0  0  0  0  0  0  0  0  0  0  0
   13.9500    1.0098   22.4276 F   0  0  0  0  0  0  0  0  0  0  0  0
   12.8682   -1.2731   23.0344 C   0  0  0  0  0  0  0  0  0  0  0  0
   11.6698   -2.0726   23.4521 C   0  0  0  0  0  0  0  0  0  0  0  0
   10.3546   -1.3886   23.6808 C   0  0  0  0  0  0  0  0  0  0  0  0
    9.1560   -2.1880   24.0985 C   0  0  0  0  0  0  0  0  0  0  0  0
    9.2728   -3.6715   24.2875 O   0  0  0  0  0  0  0  0  0  0  0  0
   10.2272    4.3343   22.8706 C   0  0  0  0  0  0  0  0  0  0  0  0
   11.5575    4.2223   22.1867 C   0  0  0  0  0  0  0  0  0  0  0  0
   12.3161    5.4616   21.8144 N   0  0  0  0  0  0  0  0  0  0  0  0
   11.7444    6.8129   22.1260 C   0  0  0  0  0  0  0  0  0  0  0  0
   10.4141    6.9249   22.8100 C   0  0  0  0  0  0  0  0  0  0  0  0
    9.8425    8.2763   23.1217 C   0  0  0  0  0  0  0  0  0  0  0  0
    8.5122    8.3882   23.8057 C   0  0  0  0  0  0  0  0  0  0  0  0
    7.7535    7.1489   24.1780 C   0  0  0  0  0  0  0  0  0  0  0  0
    8.3252    5.7976   23.8663 C   0  0  0  0  0  0  0  0  0  0  0  0
    9.6555    5.6856   23.1823 C   0  0  0  0  0  0  0  0  0  0  0  0
    6.6423   -2.3035   24.7450 C   0  0  0  0  0  0  0  0  0  0  0  0
    4.3022   -2.4197   29.4769 C   0  0  0  0  0  0  0  0  0  0  0  0
    5.3025   -2.6077   28.3751 C   0  0  0  0  0  0  0  0  0  0  0  0
    5.1402   -2.1636   26.9516 C   0  0  0  0  0  0  0  0  0  0  0  0
    6.3781   -2.5543   26.2000 C   0  0  0  0  0  0  0  0  0  0  0  0
    7.3056   -3.2400   27.1591 O   0  0  0  0  0  0  0  0  0  0  0  0
    6.6408   -3.2730   28.5034 N   0  0  0  0  0  0  0  0  0  0  0  0
 30 31  1  0  0  0
 31 32  1  0  0  0
 32 33  2  0  0  0
 33 29  1  0  0  0
 29  1  1  0  0  0
  1  2  1  0  0  0
  3  2  1  0  0  0
  3  4  1  0  0  0
  4  5  2  0  0  0
  4  6  1  0  0  0
  6 19  1  0  0  0
 19 20  2  0  0  0
 20 21  1  0  0  0
 21 22  2  0  0  0
 22 23  1  0  0  0
 23 24  2  0  0  0
 24 25  1  0  0  0
 25 26  2  0  0  0
 26 27  1  0  0  0
 27 28  2  0  0  0
  6  7  1  0  0  0
  7  8  1  0  0  0
  8  9  1  0  0  0
  3 10  1  0  0  0
 10 11  2  0  0  0
 11 12  1  0  0  0
 12 13  1  0  0  0
 12 14  2  0  0  0
 14 15  1  0  0  0
 15 16  2  0  0  0
 16 17  1  0  0  0
 17 18  2  0  0  0
 33 34  1  0  0  0
 34 35  1  0  0  0
 35 31  2  0  0  0
 17  1  1  0  0  0
  8  3  1  0  0  0
 16 10  1  0  0  0
 28 19  1  0  0  0
 28 23  1  0  0  0
M  END
> <minimizedAffinity>
-7.71307

> <CNNscore>
0.2494948953

> <CNNaffinity>
6.4319124222

> <CNN_VS>
1.6047292948

> <CNNaffinity_variance>
0.1767839491

$$$$



 35 40  0  0  0  0  0  0  0  0999 V2000
    8.4572   -0.6804   22.1378 N   0  0  0  0  0  0  0  0  0  0  0  0
    7.3489   -1.6775   22.3034 C   0  0  0  0  0  0  0  0  0  0  0  0
    7.3725   -2.6411   23.4527 C   0  0  0  0  0  0  0  0  0  0  0  0
    7.2608   -3.6617   24.5463 C   0  0  0  0  0  0  0  0  0  0  0  0
    7.8625   -4.0393   25.5321 O   0  0  0  0  0  0  0  0  0  0  0  0
    6.0005   -4.4440   24.3233 N   0  0  0  0  0  0  0  0  0  0  0  0
    5.3334   -3.9070   23.0918 C   0  0  0  0  0  0  0  0  0  0  0  0
    6.1813   -2.7928   22.5538 C   0  0  0  0  0  0  0  0  0  0  0  0
    5.8893   -1.9740   21.3314 C   0  0  0  0  0  0  0  0  0  0  0  0
    8.5044   -2.6076   24.4364 C   0  0  0  0  0  0  0  0  0  0  0  0
    8.5281   -3.5712   25.5857 C   0  0  0  0  0  0  0  0  0  0  0  0
    9.6600   -3.5377   26.5693 C   0  0  0  0  0  0  0  0  0  0  0  0
    9.6836   -4.5013   27.7187 F   0  0  0  0  0  0  0  0  0  0  0  0
   10.7683   -2.5406   26.4037 C   0  0  0  0  0  0  0  0  0  0  0  0
   10.7447   -1.5770   25.2544 C   0  0  0  0  0  0  0  0  0  0  0  0
    9.6128   -1.6105   24.2708 C   0  0  0  0  0  0  0  0  0  0  0  0
    9.5891   -0.6469   23.1214 C   0  0  0  0  0  0  0  0  0  0  0  0
   10.6974    0.3502   22.9558 O   0  0  0  0  0  0  0  0  0  0  0  0
    5.4961   -5.5663   25.1811 C   0  0  0  0  0  0  0  0  0  0  0  0
    5.7240   -6.9893   24.7650 C   0  0  0  0  0  0  0  0  0  0  0  0
    5.2196   -8.1117   25.6228 N   0  0  0  0  0  0  0  0  0  0  0  0
    4.4871   -7.8110   26.8969 C   0  0  0  0  0  0  0  0  0  0  0  0
    4.2592   -6.3880   27.3130 C   0  0  0  0  0  0  0  0  0  0  0  0
    3.5267   -6.0873   28.5871 C   0  0  0  0  0  0  0  0  0  0  0  0
    3.2988   -4.6643   29.0032 C   0  0  0  0  0  0  0  0  0  0  0  0
    3.8033   -3.5420   28.1453 C   0  0  0  0  0  0  0  0  0  0  0  0
    4.5357   -3.8427   26.8713 C   0  0  0  0  0  0  0  0  0  0  0  0
    4.7637   -5.2657   26.4552 C   0  0  0  0  0  0  0  0  0  0  0  0
    8.4335    0.2832   20.9884 C   0  0  0  0  0  0  0  0  0  0  0  0
    3.6727    1.5649   19.0984 C   0  0  0  0  0  0  0  0  0  0  0  0
    5.0364    0.9555   19.2355 C   0  0  0  0  0  0  0  0  0  0  0  0
    5.9832    1.1615   20.3805 C   0  0  0  0  0  0  0  0  0  0  0  0
    7.2247    0.3664   20.1042 C   0  0  0  0  0  0  0  0  0  0  0  0
    7.0452   -0.3311   18.7883 O   0  0  0  0  0  0  0  0  0  0  0  0
    5.6927    0.0330   18.2515 N   0  0  0  0  0  0  0  0  0  0  0  0
 30 31  1  0  0  0
 31 32  1  0  0  0
 32 33  2  0  0  0
 33 29  1  0  0  0
 29  1  1  0  0  0
  1  2  1  0  0  0
  3  2  1  0  0  0
  3  4  1  0  0  0
  4  5  2  0  0  0
  4  6  1  0  0  0
  6 19  1  0  0  0
 19 20  2  0  0  0
 20 21  1  0  0  0
 21 22  2  0  0  0
 22 23  1  0  0  0
 23 24  2  0  0  0
 24 25  1  0  0  0
 25 26  2  0  0  0
 26 27  1  0  0  0
 27 28  2  0  0  0
  6  7  1  0  0  0
  7  8  1  0  0  0
  8  9  1  0  0  0
  3 10  1  0  0  0
 10 11  2  0  0  0
 11 12  1  0  0  0
 12 13  1  0  0  0
 12 14  2  0  0  0
 14 15  1  0  0  0
 15 16  2  0  0  0
 16 17  1  0  0  0
 17 18  2  0  0  0
 33 34  1  0  0  0
 34 35  1  0  0  0
 35 31  2  0  0  0
 17  1  1  0  0  0
  8  3  1  0  0  0
 16 10  1  0  0  0
 28 19  1  0  0  0
 28 23  1  0  0  0
M  END
> <minimizedAffinity>
-8.10144

> <CNNscore>
0.2416301817

> <CNNaffinity>
6.4043149948

> <CNN_VS>
1.5474758148

> <CNNaffinity_variance>
0.1143565625

$$$$



 35 40  0  0  0  0  0  0  0  0999 V2000
    9.8090    0.1196   23.0370 N   0  0  0  0  0  0  0  0  0  0  0  0
    8.6334   -0.8015   22.8970 C   0  0  0  0  0  0  0  0  0  0  0  0
    8.5927   -2.0879   23.6674 C   0  0  0  0  0  0  0  0  0  0  0  0
    8.4127   -3.4007   24.3703 C   0  0  0  0  0  0  0  0  0  0  0  0
    8.9895   -4.1193   25.1623 O   0  0  0  0  0  0  0  0  0  0  0  0
    7.0995   -3.9822   23.9373 N   0  0  0  0  0  0  0  0  0  0  0  0
    6.4678   -3.0286   22.9669 C   0  0  0  0  0  0  0  0  0  0  0  0
    7.3907   -1.8579   22.8001 C   0  0  0  0  0  0  0  0  0  0  0  0
    7.1531   -0.6664   21.9204 C   0  0  0  0  0  0  0  0  0  0  0  0
    9.7275   -2.4531   24.5779 C   0  0  0  0  0  0  0  0  0  0  0  0
    9.6868   -3.7395   25.3483 C   0  0  0  0  0  0  0  0  0  0  0  0
   10.8216   -4.1047   26.2586 C   0  0  0  0  0  0  0  0  0  0  0  0
   10.7809   -5.3911   27.0291 F   0  0  0  0  0  0  0  0  0  0  0  0
   11.9971   -3.1835   26.3986 C   0  0  0  0  0  0  0  0  0  0  0  0
   12.0379   -1.8972   25.6282 C   0  0  0  0  0  0  0  0  0  0  0  0
   10.9031   -1.5320   24.7178 C   0  0  0  0  0  0  0  0  0  0  0  0
   10.9438   -0.2456   23.9473 C   0  0  0  0  0  0  0  0  0  0  0  0
   12.1193    0.6756   24.0873 O   0  0  0  0  0  0  0  0  0  0  0  0
    6.5198   -5.2879   24.3945 C   0  0  0  0  0  0  0  0  0  0  0  0
    7.0737   -6.5793   23.8696 C   0  0  0  0  0  0  0  0  0  0  0  0
    6.4940   -7.8850   24.3268 N   0  0  0  0  0  0  0  0  0  0  0  0
    5.3604   -7.8993   25.3089 C   0  0  0  0  0  0  0  0  0  0  0  0
    4.8064   -6.6079   25.8339 C   0  0  0  0  0  0  0  0  0  0  0  0
    3.6727   -6.6223   26.8161 C   0  0  0  0  0  0  0  0  0  0  0  0
    3.1189   -5.3308   27.3410 C   0  0  0  0  0  0  0  0  0  0  0  0
    3.6986   -4.0251   26.8838 C   0  0  0  0  0  0  0  0  0  0  0  0
    4.8323   -4.0108   25.9016 C   0  0  0  0  0  0  0  0  0  0  0  0
    5.3862   -5.3022   25.3767 C   0  0  0  0  0  0  0  0  0  0  0  0
    9.8497    1.4060   22.2665 C   0  0  0  0  0  0  0  0  0  0  0  0
    6.3534    5.0151   23.8886 C   0  0  0  0  0  0  0  0  0  0  0  0
    7.0694    3.9989   23.0493 C   0  0  0  0  0  0  0  0  0  0  0  0
    8.3078    3.2478   23.4394 C   0  0  0  0  0  0  0  0  0  0  0  0
    8.6764    2.3400   22.3036 C   0  0  0  0  0  0  0  0  0  0  0  0
    7.6658    2.5300   21.2115 O   0  0  0  0  0  0  0  0  0  0  0  0
    6.6726    3.5553   21.6724 N   0  0  0  0  0  0  0  0  0  0  0  0
 30 31  1  0  0  0
 31 32  1  0  0  0
 32 33  2  0  0  0
 33 29  1  0  0  0
 29  1  1  0  0  0
  1  2  1  0  0  0
  3  2  1  0  0  0
  3  4  1  0  0  0
  4  5  2  0  0  0
  4  6  1  0  0  0
  6 19  1  0  0  0
 19 20  2  0  0  0
 20 21  1  0  0  0
 21 22  2  0  0  0
 22 23  1  0  0  0
 23 24  2  0  0  0
 24 25  1  0  0  0
 25 26  2  0  0  0
 26 27  1  0  0  0
 27 28  2  0  0  0
  6  7  1  0  0  0
  7  8  1  0  0  0
  8  9  1  0  0  0
  3 10  1  0  0  0
 10 11  2  0  0  0
 11 12  1  0  0  0
 12 13  1  0  0  0
 12 14  2  0  0  0
 14 15  1  0  0  0
 15 16  2  0  0  0
 16 17  1  0  0  0
 17 18  2  0  0  0
 33 34  1  0  0  0
 34 35  1  0  0  0
 35 31  2  0  0  0
 17  1  1  0  0  0
  8  3  1  0  0  0
 16 10  1  0  0  0
 28 19  1  0  0  0
 28 23  1  0  0  0
M  END
> <minimizedAffinity>
-8.77297

> <CNNscore>
0.2165686041

> <CNNaffinity>
6.4647321701

> <CNN_VS>
1.4000580311

> <CNNaffinity_variance>
0.3765667081

$$$$



 35 40  0  0  0  0  0  0  0  0999 V2000
    3.7809   -5.2498   26.2106 N   0  0  0  0  0  0  0  0  0  0  0  0
    5.0461   -5.3498   25.4110 C   0  0  0  0  0  0  0  0  0  0  0  0
    5.9606   -4.1658   25.3029 C   0  0  0  0  0  0  0  0  0  0  0  0
    6.9677   -3.0718   25.1055 C   0  0  0  0  0  0  0  0  0  0  0  0
    7.1593   -1.9147   25.4228 O   0  0  0  0  0  0  0  0  0  0  0  0
    8.0704   -3.6073   24.2409 N   0  0  0  0  0  0  0  0  0  0  0  0
    7.7448   -5.0323   23.9041 C   0  0  0  0  0  0  0  0  0  0  0  0
    6.4409   -5.3774   24.5605 C   0  0  0  0  0  0  0  0  0  0  0  0
    5.7404   -6.7018   24.4872 C   0  0  0  0  0  0  0  0  0  0  0  0
    5.6100   -2.8817   25.9944 C   0  0  0  0  0  0  0  0  0  0  0  0
    6.5245   -1.6977   25.8864 C   0  0  0  0  0  0  0  0  0  0  0  0
    6.1739   -0.4136   26.5779 C   0  0  0  0  0  0  0  0  0  0  0  0
    7.0884    0.7705   26.4698 F   0  0  0  0  0  0  0  0  0  0  0  0
    4.9087   -0.3136   27.3774 C   0  0  0  0  0  0  0  0  0  0  0  0
    3.9942   -1.4976   27.4855 C   0  0  0  0  0  0  0  0  0  0  0  0
    4.3448   -2.7816   26.7940 C   0  0  0  0  0  0  0  0  0  0  0  0
    3.4303   -3.9657   26.9021 C   0  0  0  0  0  0  0  0  0  0  0  0
    2.1651   -3.8657   27.7016 O   0  0  0  0  0  0  0  0  0  0  0  0
    9.2853   -2.8507   23.7921 C   0  0  0  0  0  0  0  0  0  0  0  0
    9.2517   -2.0692   22.5121 C   0  0  0  0  0  0  0  0  0  0  0  0
   10.4666   -1.3125   22.0633 N   0  0  0  0  0  0  0  0  0  0  0  0
   11.7151   -1.3373   22.8944 C   0  0  0  0  0  0  0  0  0  0  0  0
   11.7486   -2.1188   24.1743 C   0  0  0  0  0  0  0  0  0  0  0  0
   12.9972   -2.1436   25.0054 C   0  0  0  0  0  0  0  0  0  0  0  0
   13.0306   -2.9250   26.2854 C   0  0  0  0  0  0  0  0  0  0  0  0
   11.8157   -3.6817   26.7342 C   0  0  0  0  0  0  0  0  0  0  0  0
   10.5673   -3.6569   25.9031 C   0  0  0  0  0  0  0  0  0  0  0  0
   10.5337   -2.8754   24.6232 C   0  0  0  0  0  0  0  0  0  0  0  0
    2.8664   -6.4339   26.3186 C   0  0  0  0  0  0  0  0  0  0  0  0
    0.5051   -7.6771   21.7624 C   0  0  0  0  0  0  0  0  0  0  0  0
    0.7308   -7.2397   23.1793 C   0  0  0  0  0  0  0  0  0  0  0  0
    2.0576   -7.1472   23.8728 C   0  0  0  0  0  0  0  0  0  0  0  0
    1.8162   -6.6682   25.2736 C   0  0  0  0  0  0  0  0  0  0  0  0
    0.3400   -6.4647   25.4459 O   0  0  0  0  0  0  0  0  0  0  0  0
   -0.3307   -6.8179   24.1515 N   0  0  0  0  0  0  0  0  0  0  0  0
 30 31  1  0  0  0
 31 32  1  0  0  0
 32 33  2  0  0  0
 33 29  1  0  0  0
 29  1  1  0  0  0
  1  2  1  0  0  0
  3  2  1  0  0  0
  3  4  1  0  0  0
  4  5  2  0  0  0
  4  6  1  0  0  0
  6 19  1  0  0  0
 19 20  2  0  0  0
 20 21  1  0  0  0
 21 22  2  0  0  0
 22 23  1  0  0  0
 23 24  2  0  0  0
 24 25  1  0  0  0
 25 26  2  0  0  0
 26 27  1  0  0  0
 27 28  2  0  0  0
  6  7  1  0  0  0
  7  8  1  0  0  0
  8  9  1  0  0  0
  3 10  1  0  0  0
 10 11  2  0  0  0
 11 12  1  0  0  0
 12 13  1  0  0  0
 12 14  2  0  0  0
 14 15  1  0  0  0
 15 16  2  0  0  0
 16 17  1  0  0  0
 17 18  2  0  0  0
 33 34  1  0  0  0
 34 35  1  0  0  0
 35 31  2  0  0  0
 17  1  1  0  0  0
  8  3  1  0  0  0
 16 10  1  0  0  0
 28 19  1  0  0  0
 28 23  1  0  0  0
M  END
> <minimizedAffinity>
-7.58293

> <CNNscore>
0.2099770755

> <CNNaffinity>
6.2408394814

> <CNN_VS>
1.3104332685

> <CNNaffinity_variance>
0.1156675220

$$$$



 35 40  0  0  0  0  0  0  0  0999 V2000
    5.3556    2.4180   23.2468 N   0  0  0  0  0  0  0  0  0  0  0  0
    6.5565    1.5202   23.2052 C   0  0  0  0  0  0  0  0  0  0  0  0
    6.8513    0.6079   24.3588 C   0  0  0  0  0  0  0  0  0  0  0  0
    7.2715   -0.3527   25.4315 C   0  0  0  0  0  0  0  0  0  0  0  0
    6.9184   -0.7344   26.5297 O   0  0  0  0  0  0  0  0  0  0  0  0
    8.5228   -1.0412   24.9729 N   0  0  0  0  0  0  0  0  0  0  0  0
    8.8758   -0.5062   23.6168 C   0  0  0  0  0  0  0  0  0  0  0  0
    7.8428    0.5130   23.2373 C   0  0  0  0  0  0  0  0  0  0  0  0
    7.8075    1.2994   21.9604 C   0  0  0  0  0  0  0  0  0  0  0  0
    5.9450    0.5934   25.5541 C   0  0  0  0  0  0  0  0  0  0  0  0
    6.2397   -0.3189   26.7077 C   0  0  0  0  0  0  0  0  0  0  0  0
    5.3335   -0.3333   27.9029 C   0  0  0  0  0  0  0  0  0  0  0  0
    5.6282   -1.2456   29.0566 F   0  0  0  0  0  0  0  0  0  0  0  0
    4.1326    0.5645   27.9445 C   0  0  0  0  0  0  0  0  0  0  0  0
    3.8379    1.4768   26.7909 C   0  0  0  0  0  0  0  0  0  0  0  0
    4.7441    1.4912   25.5957 C   0  0  0  0  0  0  0  0  0  0  0  0
    4.4494    2.4035   24.4420 C   0  0  0  0  0  0  0  0  0  0  0  0
    3.2485    3.3013   24.4836 O   0  0  0  0  0  0  0  0  0  0  0  0
    9.2868   -2.0821   25.7364 C   0  0  0  0  0  0  0  0  0  0  0  0
    8.5512   -3.1183   26.5334 C   0  0  0  0  0  0  0  0  0  0  0  0
    9.3152   -4.1591   27.2969 N   0  0  0  0  0  0  0  0  0  0  0  0
   10.8148   -4.1638   27.2634 C   0  0  0  0  0  0  0  0  0  0  0  0
   11.5504   -3.1276   26.4664 C   0  0  0  0  0  0  0  0  0  0  0  0
   13.0501   -3.1322   26.4329 C   0  0  0  0  0  0  0  0  0  0  0  0
   13.7856   -2.0960   25.6358 C   0  0  0  0  0  0  0  0  0  0  0  0
   13.0216   -1.0551   24.8723 C   0  0  0  0  0  0  0  0  0  0  0  0
   11.5220   -1.0505   24.9059 C   0  0  0  0  0  0  0  0  0  0  0  0
   10.7864   -2.0867   25.7029 C   0  0  0  0  0  0  0  0  0  0  0  0
    5.0609    3.3303   22.0931 C   0  0  0  0  0  0  0  0  0  0  0  0
    4.7624    0.5663   17.6041 C   0  0  0  0  0  0  0  0  0  0  0  0
    4.4241    1.4929   18.7339 C   0  0  0  0  0  0  0  0  0  0  0  0
    5.2897    1.7860   19.9234 C   0  0  0  0  0  0  0  0  0  0  0  0
    4.5613    2.7634   20.7974 C   0  0  0  0  0  0  0  0  0  0  0  0
    3.2452    3.0746   20.1481 O   0  0  0  0  0  0  0  0  0  0  0  0
    3.1605    2.2893   18.8728 N   0  0  0  0  0  0  0  0  0  0  0  0
 30 31  1  0  0  0
 31 32  1  0  0  0
 32 33  2  0  0  0
 33 29  1  0  0  0
 29  1  1  0  0  0
  1  2  1  0  0  0
  3  2  1  0  0  0
  3  4  1  0  0  0
  4  5  2  0  0  0
  4  6  1  0  0  0
  6 19  1  0  0  0
 19 20  2  0  0  0
 20 21  1  0  0  0
 21 22  2  0  0  0
 22 23  1  0  0  0
 23 24  2  0  0  0
 24 25  1  0  0  0
 25 26  2  0  0  0
 26 27  1  0  0  0
 27 28  2  0  0  0
  6  7  1  0  0  0
  7  8  1  0  0  0
  8  9  1  0  0  0
  3 10  1  0  0  0
 10 11  2  0  0  0
 11 12  1  0  0  0
 12 13  1  0  0  0
 12 14  2  0  0  0
 14 15  1  0  0  0
 15 16  2  0  0  0
 16 17  1  0  0  0
 17 18  2  0  0  0
 33 34  1  0  0  0
 34 35  1  0  0  0
 35 31  2  0  0  0
 17  1  1  0  0  0
  8  3  1  0  0  0
 16 10  1  0  0  0
 28 19  1  0  0  0
 28 23  1  0  0  0
M  END
> <minimizedAffinity>
-7.57736

> <CNNscore>
0.2063198984

> <CNNaffinity>
6.2558712959

> <CNN_VS>
1.2907106876

> <CNNaffinity_variance>
0.1495984495

$$$$



 35 40  0  0  0  0  0  0  0  0999 V2000
    8.4602   -0.1912   22.8920 N   0  0  0  0  0  0  0  0  0  0  0  0
    7.1894   -0.5916   23.5812 C   0  0  0  0  0  0  0  0  0  0  0  0
    7.2334   -1.5335   24.7476 C   0  0  0  0  0  0  0  0  0  0  0  0
    7.1211   -2.4618   25.9205 C   0  0  0  0  0  0  0  0  0  0  0  0
    7.8268   -3.1314   26.6486 O   0  0  0  0  0  0  0  0  0  0  0  0
    5.6701   -2.5778   26.2826 N   0  0  0  0  0  0  0  0  0  0  0  0
    4.8856   -1.7213   25.3335 C   0  0  0  0  0  0  0  0  0  0  0  0
    5.8518   -1.0758   24.3849 C   0  0  0  0  0  0  0  0  0  0  0  0
    5.4983   -0.1375   23.2693 C   0  0  0  0  0  0  0  0  0  0  0  0
    8.5483   -2.0752   25.2251 C   0  0  0  0  0  0  0  0  0  0  0  0
    8.5923   -3.0172   26.3916 C   0  0  0  0  0  0  0  0  0  0  0  0
    9.9070   -3.5588   26.8689 C   0  0  0  0  0  0  0  0  0  0  0  0
    9.9511   -4.5008   28.0355 F   0  0  0  0  0  0  0  0  0  0  0  0
   11.1778   -3.1585   26.1798 C   0  0  0  0  0  0  0  0  0  0  0  0
   11.1338   -2.2165   25.0133 C   0  0  0  0  0  0  0  0  0  0  0  0
    9.8190   -1.6749   24.5360 C   0  0  0  0  0  0  0  0  0  0  0  0
    9.7750   -0.7329   23.3694 C   0  0  0  0  0  0  0  0  0  0  0  0
   11.0458   -0.3326   22.6803 O   0  0  0  0  0  0  0  0  0  0  0  0
    5.1032   -3.4052   27.3980 C   0  0  0  0  0  0  0  0  0  0  0  0
    4.5779   -4.7821   27.1183 C   0  0  0  0  0  0  0  0  0  0  0  0
    4.0110   -5.6095   28.2337 N   0  0  0  0  0  0  0  0  0  0  0  0
    3.9694   -5.0599   29.6288 C   0  0  0  0  0  0  0  0  0  0  0  0
    4.4947   -3.6830   29.9085 C   0  0  0  0  0  0  0  0  0  0  0  0
    4.4530   -3.1334   31.3036 C   0  0  0  0  0  0  0  0  0  0  0  0
    4.9783   -1.7565   31.5832 C   0  0  0  0  0  0  0  0  0  0  0  0
    5.5452   -0.9291   30.4678 C   0  0  0  0  0  0  0  0  0  0  0  0
    5.5869   -1.4787   29.0728 C   0  0  0  0  0  0  0  0  0  0  0  0
    5.0616   -2.8556   28.7931 C   0  0  0  0  0  0  0  0  0  0  0  0
    8.4161    0.7508   21.7255 C   0  0  0  0  0  0  0  0  0  0  0  0
    4.4234    1.1050   18.2885 C   0  0  0  0  0  0  0  0  0  0  0  0
    5.6624    0.6369   18.9925 C   0  0  0  0  0  0  0  0  0  0  0  0
    6.2752    1.2639   20.2096 C   0  0  0  0  0  0  0  0  0  0  0  0
    7.4977    0.4740   20.5723 C   0  0  0  0  0  0  0  0  0  0  0  0
    7.6404   -0.6413   19.5794 O   0  0  0  0  0  0  0  0  0  0  0  0
    6.5061   -0.5406   18.6030 N   0  0  0  0  0  0  0  0  0  0  0  0
 30 31  1  0  0  0
 31 32  1  0  0  0
 32 33  2  0  0  0
 33 29  1  0  0  0
 29  1  1  0  0  0
  1  2  1  0  0  0
  3  2  1  0  0  0
  3  4  1  0  0  0
  4  5  2  0  0  0
  4  6  1  0  0  0
  6 19  1  0  0  0
 19 20  2  0  0  0
 20 21  1  0  0  0
 21 22  2  0  0  0
 22 23  1  0  0  0
 23 24  2  0  0  0
 24 25  1  0  0  0
 25 26  2  0  0  0
 26 27  1  0  0  0
 27 28  2  0  0  0
  6  7  1  0  0  0
  7  8  1  0  0  0
  8  9  1  0  0  0
  3 10  1  0  0  0
 10 11  2  0  0  0
 11 12  1  0  0  0
 12 13  1  0  0  0
 12 14  2  0  0  0
 14 15  1  0  0  0
 15 16  2  0  0  0
 16 17  1  0  0  0
 17 18  2  0  0  0
 33 34  1  0  0  0
 34 35  1  0  0  0
 35 31  2  0  0  0
 17  1  1  0  0  0
  8  3  1  0  0  0
 16 10  1  0  0  0
 28 19  1  0  0  0
 28 23  1  0  0  0
M  END
> <minimizedAffinity>
-7.66299

> <CNNscore>
0.1953513175

> <CNNaffinity>
6.1490740776

> <CNN_VS>
1.2012296915

> <CNNaffinity_variance>
0.1088437587

$$$$
