


 35 40  0  0  0  0  0  0  0  0999 V2000
   -9.6610   -2.3314  -23.4580 C   0  0  0  0  0  0  0  0  0  0  0  0
   -8.3723   -2.5628  -22.7258 C   0  0  0  0  0  0  0  0  0  0  0  0
   -8.0711   -1.4588  -21.7560 C   0  0  0  0  0  0  0  0  0  0  0  0
   -6.7720   -1.7792  -21.0780 N   0  0  0  0  0  0  0  0  0  0  0  0
   -6.2704   -3.0811  -21.6288 C   0  0  0  0  0  0  0  0  0  0  0  0
   -5.0023   -3.7767  -21.2310 O   0  0  0  0  0  0  0  0  0  0  0  0
   -7.2594   -3.5654  -22.6472 C   0  0  0  0  0  0  0  0  0  0  0  0
   -6.0818   -4.4753  -22.4598 C   0  0  0  0  0  0  0  0  0  0  0  0
   -5.9764   -5.7401  -23.2593 N   0  0  0  0  0  0  0  0  0  0  0  0
   -7.0488   -6.0951  -24.2462 C   0  0  0  0  0  0  0  0  0  0  0  0
   -6.9435   -7.3599  -25.0456 O   0  0  0  0  0  0  0  0  0  0  0  0
   -8.2266   -5.1852  -24.4336 C   0  0  0  0  0  0  0  0  0  0  0  0
   -9.2989   -5.5402  -25.4205 C   0  0  0  0  0  0  0  0  0  0  0  0
  -10.4766   -4.6303  -25.6080 C   0  0  0  0  0  0  0  0  0  0  0  0
  -10.5819   -3.3655  -24.8085 C   0  0  0  0  0  0  0  0  0  0  0  0
  -11.7597   -2.4556  -24.9960 Cl  0  0  0  0  0  0  0  0  0  0  0  0
   -9.5096   -3.0105  -23.8216 C   0  0  0  0  0  0  0  0  0  0  0  0
   -8.3319   -3.9204  -23.6342 C   0  0  0  0  0  0  0  0  0  0  0  0
   -6.0936   -0.9443  -20.0327 C   0  0  0  0  0  0  0  0  0  0  0  0
   -6.6014   -0.9512  -18.6214 C   0  0  0  0  0  0  0  0  0  0  0  0
   -5.9230   -0.1163  -17.5761 N   0  0  0  0  0  0  0  0  0  0  0  0
   -4.7368    0.7256  -17.9422 C   0  0  0  0  0  0  0  0  0  0  0  0
   -4.2289    0.7325  -19.3536 C   0  0  0  0  0  0  0  0  0  0  0  0
   -3.0425    1.5744  -19.7197 C   0  0  0  0  0  0  0  0  0  0  0  0
   -2.5347    1.5812  -21.1311 C   0  0  0  0  0  0  0  0  0  0  0  0
   -3.2132    0.7463  -22.1763 C   0  0  0  0  0  0  0  0  0  0  0  0
   -4.3994   -0.0956  -21.8102 C   0  0  0  0  0  0  0  0  0  0  0  0
   -4.9073   -0.1025  -20.3989 C   0  0  0  0  0  0  0  0  0  0  0  0
   -4.7987   -6.6500  -23.0718 C   0  0  0  0  0  0  0  0  0  0  0  0
   -3.8476   -6.8893  -24.2068 C   0  0  0  0  0  0  0  0  0  0  0  0
   -2.3982   -7.1557  -23.9272 N   0  0  0  0  0  0  0  0  0  0  0  0
   -1.1054   -6.7986  -24.5989 C   0  0  0  0  0  0  0  0  0  0  0  0
   -0.3484   -7.5324  -23.5319 C   0  0  0  0  0  0  0  0  0  0  0  0
   -1.6411   -7.8894  -22.8603 C   0  0  0  0  0  0  0  0  0  0  0  0
   -1.4126   -7.3368  -23.7372 H   0  0  0  0  0  0  0  0  0  0  0  0
  2  1  1  0  0  0
  2  3  1  0  0  0
  3  4  1  0  0  0
  4 19  1  0  0  0
 19 20  2  0  0  0
 20 21  1  0  0  0
 21 22  2  0  0  0
 22 23  1  0  0  0
 23 24  2  0  0  0
 24 25  1  0  0  0
 25 26  2  0  0  0
 26 27  1  0  0  0
 27 28  2  0  0  0
  4  5  1  0  0  0
  5  6  2  0  0  0
  5  7  1  0  0  0
  7  8  1  0  0  0
  8  9  1  0  0  0
  9 29  1  0  0  0
 29 30  1  0  0  0
 30 31  1  0  0  0
 31 32  1  0  0  0
 32 33  1  0  0  0
 33 34  1  0  0  0
  9 10  1  0  0  0
 10 11  2  0  0  0
 10 12  1  0  0  0
 12 13  2  0  0  0
 13 14  1  0  0  0
 14 15  2  0  0  0
 15 16  1  0  0  0
 15 17  1  0  0  0
 17 18  2  0  0  0
  7  2  1  0  0  0
 34 31  1  0  0  0
 18 12  1  0  0  0
 28 19  1  0  0  0
 18  7  1  0  0  0
 28 23  1  0  0  0
 31 35  1  0  0  0
M  CHG 1  31   1
M  END
> <minimizedAffinity>
-7.22292

> <CNNscore>
0.5513116717

> <CNNaffinity>
6.5256471634

> <CNN_VS>
3.5976655483

> <CNNaffinity_variance>
0.1769776642

$$$$



 35 40  0  0  0  0  0  0  0  0999 V2000
   -7.2141   -0.0590  -21.1317 C   0  0  0  0  0  0  0  0  0  0  0  0
   -8.3997   -0.1989  -22.0399 C   0  0  0  0  0  0  0  0  0  0  0  0
   -9.2006    1.0671  -22.1174 C   0  0  0  0  0  0  0  0  0  0  0  0
  -10.3565    0.8284  -23.0432 N   0  0  0  0  0  0  0  0  0  0  0  0
  -10.2699   -0.5850  -23.5378 C   0  0  0  0  0  0  0  0  0  0  0  0
  -11.2251   -1.2473  -24.4860 O   0  0  0  0  0  0  0  0  0  0  0  0
   -9.0606   -1.2199  -22.9178 C   0  0  0  0  0  0  0  0  0  0  0  0
   -9.8283   -2.1309  -23.8292 C   0  0  0  0  0  0  0  0  0  0  0  0
   -9.3618   -3.5396  -24.0485 N   0  0  0  0  0  0  0  0  0  0  0  0
   -8.1275   -4.0372  -23.3564 C   0  0  0  0  0  0  0  0  0  0  0  0
   -7.6610   -5.4458  -23.5757 O   0  0  0  0  0  0  0  0  0  0  0  0
   -7.3598   -3.1262  -22.4450 C   0  0  0  0  0  0  0  0  0  0  0  0
   -6.1255   -3.6238  -21.7529 C   0  0  0  0  0  0  0  0  0  0  0  0
   -5.3578   -2.7128  -20.8416 C   0  0  0  0  0  0  0  0  0  0  0  0
   -5.8243   -1.3042  -20.6223 C   0  0  0  0  0  0  0  0  0  0  0  0
   -5.0566   -0.3931  -19.7108 Cl  0  0  0  0  0  0  0  0  0  0  0  0
   -7.0586   -0.8065  -21.3143 C   0  0  0  0  0  0  0  0  0  0  0  0
   -7.8263   -1.7175  -22.2257 C   0  0  0  0  0  0  0  0  0  0  0  0
  -11.4133    1.8277  -23.4099 C   0  0  0  0  0  0  0  0  0  0  0  0
  -12.7688    1.7539  -22.7721 C   0  0  0  0  0  0  0  0  0  0  0  0
  -13.8257    2.7532  -23.1389 N   0  0  0  0  0  0  0  0  0  0  0  0
  -13.5269    3.8263  -24.1434 C   0  0  0  0  0  0  0  0  0  0  0  0
  -12.1712    3.9001  -24.7812 C   0  0  0  0  0  0  0  0  0  0  0  0
  -11.8724    4.9733  -25.7858 C   0  0  0  0  0  0  0  0  0  0  0  0
  -10.5167    5.0470  -26.4236 C   0  0  0  0  0  0  0  0  0  0  0  0
   -9.4600    4.0477  -26.0568 C   0  0  0  0  0  0  0  0  0  0  0  0
   -9.7588    2.9746  -25.0523 C   0  0  0  0  0  0  0  0  0  0  0  0
  -11.1144    2.9008  -24.4145 C   0  0  0  0  0  0  0  0  0  0  0  0
  -10.1296   -4.4506  -24.9599 C   0  0  0  0  0  0  0  0  0  0  0  0
   -9.9314   -4.3674  -26.4444 C   0  0  0  0  0  0  0  0  0  0  0  0
   -8.8918   -5.2188  -27.1111 N   0  0  0  0  0  0  0  0  0  0  0  0
   -7.3926   -5.2653  -27.1004 C   0  0  0  0  0  0  0  0  0  0  0  0
   -7.4217   -6.4228  -28.0540 C   0  0  0  0  0  0  0  0  0  0  0  0
   -8.9208   -6.3763  -28.0647 C   0  0  0  0  0  0  0  0  0  0  0  0
   -8.1849   -5.7977  -27.5644 H   0  0  0  0  0  0  0  0  0  0  0  0
  2  1  1  0  0  0
  2  3  1  0  0  0
  3  4  1  0  0  0
  4 19  1  0  0  0
 19 20  2  0  0  0
 20 21  1  0  0  0
 21 22  2  0  0  0
 22 23  1  0  0  0
 23 24  2  0  0  0
 24 25  1  0  0  0
 25 26  2  0  0  0
 26 27  1  0  0  0
 27 28  2  0  0  0
  4  5  1  0  0  0
  5  6  2  0  0  0
  5  7  1  0  0  0
  7  8  1  0  0  0
  8  9  1  0  0  0
  9 29  1  0  0  0
 29 30  1  0  0  0
 30 31  1  0  0  0
 31 32  1  0  0  0
 32 33  1  0  0  0
 33 34  1  0  0  0
  9 10  1  0  0  0
 10 11  2  0  0  0
 10 12  1  0  0  0
 12 13  2  0  0  0
 13 14  1  0  0  0
 14 15  2  0  0  0
 15 16  1  0  0  0
 15 17  1  0  0  0
 17 18  2  0  0  0
  7  2  1  0  0  0
 34 31  1  0  0  0
 18 12  1  0  0  0
 28 19  1  0  0  0
 18  7  1  0  0  0
 28 23  1  0  0  0
 31 35  1  0  0  0
M  CHG 1  31   1
M  END
> <minimizedAffinity>
-8.28304

> <CNNscore>
0.3747243583

> <CNNaffinity>
6.1635599136

> <CNN_VS>
2.3096361160

> <CNNaffinity_variance>
0.1976702213

$$$$



 35 40  0  0  0  0  0  0  0  0999 V2000
  -10.0009    1.5265  -22.6505 C   0  0  0  0  0  0  0  0  0  0  0  0
   -8.7847    0.6591  -22.5133 C   0  0  0  0  0  0  0  0  0  0  0  0
   -7.6061    1.4233  -21.9873 C   0  0  0  0  0  0  0  0  0  0  0  0
   -6.4473    0.4763  -21.8861 N   0  0  0  0  0  0  0  0  0  0  0  0
   -6.9098   -0.8733  -22.3497 C   0  0  0  0  0  0  0  0  0  0  0  0
   -6.0744   -2.1174  -22.4142 O   0  0  0  0  0  0  0  0  0  0  0  0
   -8.3545   -0.7603  -22.7373 C   0  0  0  0  0  0  0  0  0  0  0  0
   -7.7824   -2.1361  -22.9098 C   0  0  0  0  0  0  0  0  0  0  0  0
   -8.6452   -3.2473  -23.4301 N   0  0  0  0  0  0  0  0  0  0  0  0
  -10.0801   -2.9827  -23.7779 C   0  0  0  0  0  0  0  0  0  0  0  0
  -10.9429   -4.0940  -24.2982 O   0  0  0  0  0  0  0  0  0  0  0  0
  -10.6523   -1.6069  -23.6053 C   0  0  0  0  0  0  0  0  0  0  0  0
  -12.0872   -1.3423  -23.9531 C   0  0  0  0  0  0  0  0  0  0  0  0
  -12.6593    0.0335  -23.7806 C   0  0  0  0  0  0  0  0  0  0  0  0
  -11.7965    1.1447  -23.2603 C   0  0  0  0  0  0  0  0  0  0  0  0
  -12.3686    2.5206  -23.0878 Cl  0  0  0  0  0  0  0  0  0  0  0  0
  -10.3615    0.8802  -22.9125 C   0  0  0  0  0  0  0  0  0  0  0  0
   -9.7894   -0.4956  -23.0851 C   0  0  0  0  0  0  0  0  0  0  0  0
   -5.0682    0.8186  -21.4057 C   0  0  0  0  0  0  0  0  0  0  0  0
   -4.8399    1.1611  -19.9634 C   0  0  0  0  0  0  0  0  0  0  0  0
   -3.4607    1.5034  -19.4830 N   0  0  0  0  0  0  0  0  0  0  0  0
   -2.3099    1.5031  -20.4451 C   0  0  0  0  0  0  0  0  0  0  0  0
   -2.5382    1.1605  -21.8875 C   0  0  0  0  0  0  0  0  0  0  0  0
   -1.3873    1.1602  -22.8496 C   0  0  0  0  0  0  0  0  0  0  0  0
   -1.6157    0.8176  -24.2919 C   0  0  0  0  0  0  0  0  0  0  0  0
   -2.9948    0.4753  -24.7722 C   0  0  0  0  0  0  0  0  0  0  0  0
   -4.1456    0.4756  -23.8102 C   0  0  0  0  0  0  0  0  0  0  0  0
   -3.9173    0.8182  -22.3679 C   0  0  0  0  0  0  0  0  0  0  0  0
   -8.0730   -4.6232  -23.6026 C   0  0  0  0  0  0  0  0  0  0  0  0
   -7.6049   -5.0768  -24.9536 C   0  0  0  0  0  0  0  0  0  0  0  0
   -8.6049   -5.4421  -26.0101 N   0  0  0  0  0  0  0  0  0  0  0  0
   -9.4585   -6.6427  -26.2929 C   0  0  0  0  0  0  0  0  0  0  0  0
  -10.0193   -5.9588  -27.5044 C   0  0  0  0  0  0  0  0  0  0  0  0
   -9.1657   -4.7582  -27.2217 C   0  0  0  0  0  0  0  0  0  0  0  0
   -9.2850   -5.6906  -26.7286 H   0  0  0  0  0  0  0  0  0  0  0  0
  2  1  1  0  0  0
  2  3  1  0  0  0
  3  4  1  0  0  0
  4 19  1  0  0  0
 19 20  2  0  0  0
 20 21  1  0  0  0
 21 22  2  0  0  0
 22 23  1  0  0  0
 23 24  2  0  0  0
 24 25  1  0  0  0
 25 26  2  0  0  0
 26 27  1  0  0  0
 27 28  2  0  0  0
  4  5  1  0  0  0
  5  6  2  0  0  0
  5  7  1  0  0  0
  7  8  1  0  0  0
  8  9  1  0  0  0
  9 29  1  0  0  0
 29 30  1  0  0  0
 30 31  1  0  0  0
 31 32  1  0  0  0
 32 33  1  0  0  0
 33 34  1  0  0  0
  9 10  1  0  0  0
 10 11  2  0  0  0
 10 12  1  0  0  0
 12 13  2  0  0  0
 13 14  1  0  0  0
 14 15  2  0  0  0
 15 16  1  0  0  0
 15 17  1  0  0  0
 17 18  2  0  0  0
  7  2  1  0  0  0
 34 31  1  0  0  0
 18 12  1  0  0  0
 28 19  1  0  0  0
 18  7  1  0  0  0
 28 23  1  0  0  0
 31 35  1  0  0  0
M  CHG 1  31   1
M  END
> <minimizedAffinity>
-7.71279

> <CNNscore>
0.3477891982

> <CNNaffinity>
6.1990947723

> <CNN_VS>
2.1559782028

> <CNNaffinity_variance>
0.1496360600

$$$$



 35 40  0  0  0  0  0  0  0  0999 V2000
   -7.2199   -1.0308  -25.6482 C   0  0  0  0  0  0  0  0  0  0  0  0
   -6.9085   -1.6511  -24.3184 C   0  0  0  0  0  0  0  0  0  0  0  0
   -6.4862   -0.6279  -23.3062 C   0  0  0  0  0  0  0  0  0  0  0  0
   -6.1987   -1.3411  -22.0183 N   0  0  0  0  0  0  0  0  0  0  0  0
   -6.4433   -2.8051  -22.2346 C   0  0  0  0  0  0  0  0  0  0  0  0
   -6.2781   -3.8875  -21.2094 O   0  0  0  0  0  0  0  0  0  0  0  0
   -6.8820   -2.9968  -23.6562 C   0  0  0  0  0  0  0  0  0  0  0  0
   -6.8083   -4.2682  -22.8638 C   0  0  0  0  0  0  0  0  0  0  0  0
   -7.1589   -5.5759  -23.5097 N   0  0  0  0  0  0  0  0  0  0  0  0
   -7.5833   -5.6120  -24.9480 C   0  0  0  0  0  0  0  0  0  0  0  0
   -7.9339   -6.9196  -25.5938 O   0  0  0  0  0  0  0  0  0  0  0  0
   -7.6570   -4.3405  -25.7404 C   0  0  0  0  0  0  0  0  0  0  0  0
   -8.0813   -4.3766  -27.1786 C   0  0  0  0  0  0  0  0  0  0  0  0
   -8.1551   -3.1052  -27.9710 C   0  0  0  0  0  0  0  0  0  0  0  0
   -7.8044   -1.7975  -27.3251 C   0  0  0  0  0  0  0  0  0  0  0  0
   -7.8782   -0.5260  -28.1175 Cl  0  0  0  0  0  0  0  0  0  0  0  0
   -7.3801   -1.7614  -25.8869 C   0  0  0  0  0  0  0  0  0  0  0  0
   -7.3064   -3.0329  -25.0945 C   0  0  0  0  0  0  0  0  0  0  0  0
   -5.7460   -0.7025  -20.7388 C   0  0  0  0  0  0  0  0  0  0  0  0
   -6.5184   -0.9292  -19.4732 C   0  0  0  0  0  0  0  0  0  0  0  0
   -6.0657   -0.2905  -18.1936 N   0  0  0  0  0  0  0  0  0  0  0  0
   -4.8406    0.5748  -18.1798 C   0  0  0  0  0  0  0  0  0  0  0  0
   -4.0681    0.8015  -19.4455 C   0  0  0  0  0  0  0  0  0  0  0  0
   -2.8429    1.6669  -19.4316 C   0  0  0  0  0  0  0  0  0  0  0  0
   -2.0706    1.8936  -20.6974 C   0  0  0  0  0  0  0  0  0  0  0  0
   -2.5233    1.2549  -21.9768 C   0  0  0  0  0  0  0  0  0  0  0  0
   -3.7484    0.3896  -21.9906 C   0  0  0  0  0  0  0  0  0  0  0  0
   -4.5208    0.1629  -20.7250 C   0  0  0  0  0  0  0  0  0  0  0  0
   -7.0852   -6.8474  -22.7173 C   0  0  0  0  0  0  0  0  0  0  0  0
   -5.7517   -7.4048  -22.3160 C   0  0  0  0  0  0  0  0  0  0  0  0
   -4.6460   -7.5037  -23.3247 N   0  0  0  0  0  0  0  0  0  0  0  0
   -3.1922   -7.1347  -23.3445 C   0  0  0  0  0  0  0  0  0  0  0  0
   -3.0822   -7.6435  -24.7513 C   0  0  0  0  0  0  0  0  0  0  0  0
   -4.5359   -8.0124  -24.7316 C   0  0  0  0  0  0  0  0  0  0  0  0
   -3.8940   -7.5709  -24.0106 H   0  0  0  0  0  0  0  0  0  0  0  0
  2  1  1  0  0  0
  2  3  1  0  0  0
  3  4  1  0  0  0
  4 19  1  0  0  0
 19 20  2  0  0  0
 20 21  1  0  0  0
 21 22  2  0  0  0
 22 23  1  0  0  0
 23 24  2  0  0  0
 24 25  1  0  0  0
 25 26  2  0  0  0
 26 27  1  0  0  0
 27 28  2  0  0  0
  4  5  1  0  0  0
  5  6  2  0  0  0
  5  7  1  0  0  0
  7  8  1  0  0  0
  8  9  1  0  0  0
  9 29  1  0  0  0
 29 30  1  0  0  0
 30 31  1  0  0  0
 31 32  1  0  0  0
 32 33  1  0  0  0
 33 34  1  0  0  0
  9 10  1  0  0  0
 10 11  2  0  0  0
 10 12  1  0  0  0
 12 13  2  0  0  0
 13 14  1  0  0  0
 14 15  2  0  0  0
 15 16  1  0  0  0
 15 17  1  0  0  0
 17 18  2  0  0  0
  7  2  1  0  0  0
 34 31  1  0  0  0
 18 12  1  0  0  0
 28 19  1  0  0  0
 18  7  1  0  0  0
 28 23  1  0  0  0
 31 35  1  0  0  0
M  CHG 1  31   1
M  END
> <minimizedAffinity>
-7.18034

> <CNNscore>
0.3198075294

> <CNNaffinity>
6.3079442978

> <CNN_VS>
2.0173280239

> <CNNaffinity_variance>
0.1237068921

$$$$



 35 40  0  0  0  0  0  0  0  0999 V2000
  -11.4570   -2.5026  -22.9031 C   0  0  0  0  0  0  0  0  0  0  0  0
   -9.9929   -2.4344  -23.2220 C   0  0  0  0  0  0  0  0  0  0  0  0
   -9.3121   -3.7560  -23.0218 C   0  0  0  0  0  0  0  0  0  0  0  0
   -7.8615   -3.5866  -23.3640 N   0  0  0  0  0  0  0  0  0  0  0  0
   -7.6458   -2.1604  -23.7757 C   0  0  0  0  0  0  0  0  0  0  0  0
   -6.3417   -1.5530  -24.2005 O   0  0  0  0  0  0  0  0  0  0  0  0
   -8.9631   -1.4483  -23.6879 C   0  0  0  0  0  0  0  0  0  0  0  0
   -7.8291   -0.5794  -24.1451 C   0  0  0  0  0  0  0  0  0  0  0  0
   -8.0736    0.8652  -24.4667 N   0  0  0  0  0  0  0  0  0  0  0  0
   -9.4521    1.4408  -24.3312 C   0  0  0  0  0  0  0  0  0  0  0  0
   -9.6966    2.8854  -24.6529 O   0  0  0  0  0  0  0  0  0  0  0  0
  -10.5862    0.5719  -23.8740 C   0  0  0  0  0  0  0  0  0  0  0  0
  -11.9646    1.1475  -23.7385 C   0  0  0  0  0  0  0  0  0  0  0  0
  -13.0986    0.2785  -23.2814 C   0  0  0  0  0  0  0  0  0  0  0  0
  -12.8541   -1.1660  -22.9597 C   0  0  0  0  0  0  0  0  0  0  0  0
  -13.9881   -2.0350  -22.5026 Cl  0  0  0  0  0  0  0  0  0  0  0  0
  -11.4756   -1.7416  -23.0952 C   0  0  0  0  0  0  0  0  0  0  0  0
  -10.3416   -0.8727  -23.5524 C   0  0  0  0  0  0  0  0  0  0  0  0
   -6.8110   -4.6557  -23.3049 C   0  0  0  0  0  0  0  0  0  0  0  0
   -6.0627   -4.9022  -22.0286 C   0  0  0  0  0  0  0  0  0  0  0  0
   -5.0122   -5.9713  -21.9695 N   0  0  0  0  0  0  0  0  0  0  0  0
   -4.7101   -6.7939  -23.1868 C   0  0  0  0  0  0  0  0  0  0  0  0
   -5.4584   -6.5474  -24.4633 C   0  0  0  0  0  0  0  0  0  0  0  0
   -5.1562   -7.3701  -25.6807 C   0  0  0  0  0  0  0  0  0  0  0  0
   -5.9046   -7.1235  -26.9571 C   0  0  0  0  0  0  0  0  0  0  0  0
   -6.9550   -6.0544  -27.0161 C   0  0  0  0  0  0  0  0  0  0  0  0
   -7.2571   -5.2318  -25.7987 C   0  0  0  0  0  0  0  0  0  0  0  0
   -6.5089   -5.4783  -24.5224 C   0  0  0  0  0  0  0  0  0  0  0  0
   -6.9396    1.7341  -24.9239 C   0  0  0  0  0  0  0  0  0  0  0  0
   -6.1283    1.3396  -26.1222 C   0  0  0  0  0  0  0  0  0  0  0  0
   -6.7731    0.5915  -27.2512 N   0  0  0  0  0  0  0  0  0  0  0  0
   -6.7984   -0.8405  -27.6970 C   0  0  0  0  0  0  0  0  0  0  0  0
   -7.6850   -0.4665  -28.8477 C   0  0  0  0  0  0  0  0  0  0  0  0
   -7.6597    0.9654  -28.4019 C   0  0  0  0  0  0  0  0  0  0  0  0
   -7.2116    0.0827  -28.0188 H   0  0  0  0  0  0  0  0  0  0  0  0
  2  1  1  0  0  0
  2  3  1  0  0  0
  3  4  1  0  0  0
  4 19  1  0  0  0
 19 20  2  0  0  0
 20 21  1  0  0  0
 21 22  2  0  0  0
 22 23  1  0  0  0
 23 24  2  0  0  0
 24 25  1  0  0  0
 25 26  2  0  0  0
 26 27  1  0  0  0
 27 28  2  0  0  0
  4  5  1  0  0  0
  5  6  2  0  0  0
  5  7  1  0  0  0
  7  8  1  0  0  0
  8  9  1  0  0  0
  9 29  1  0  0  0
 29 30  1  0  0  0
 30 31  1  0  0  0
 31 32  1  0  0  0
 32 33  1  0  0  0
 33 34  1  0  0  0
  9 10  1  0  0  0
 10 11  2  0  0  0
 10 12  1  0  0  0
 12 13  2  0  0  0
 13 14  1  0  0  0
 14 15  2  0  0  0
 15 16  1  0  0  0
 15 17  1  0  0  0
 17 18  2  0  0  0
  7  2  1  0  0  0
 34 31  1  0  0  0
 18 12  1  0  0  0
 28 19  1  0  0  0
 18  7  1  0  0  0
 28 23  1  0  0  0
 31 35  1  0  0  0
M  CHG 1  31   1
M  END
> <minimizedAffinity>
-6.94002

> <CNNscore>
0.2969913781

> <CNNaffinity>
6.1374297142

> <CNN_VS>
1.8227636814

> <CNNaffinity_variance>
0.1721116751

$$$$



 35 40  0  0  0  0  0  0  0  0999 V2000
  -10.0461   -4.4413  -25.3346 C   0  0  0  0  0  0  0  0  0  0  0  0
   -9.8548   -3.2507  -24.4424 C   0  0  0  0  0  0  0  0  0  0  0  0
  -10.8952   -2.1968  -24.6811 C   0  0  0  0  0  0  0  0  0  0  0  0
  -10.6207   -1.0549  -23.7480 N   0  0  0  0  0  0  0  0  0  0  0  0
   -9.4108   -1.4031  -22.9326 C   0  0  0  0  0  0  0  0  0  0  0  0
   -8.7843   -0.5448  -21.8739 O   0  0  0  0  0  0  0  0  0  0  0  0
   -8.9374   -2.7602  -23.3618 C   0  0  0  0  0  0  0  0  0  0  0  0
   -8.1083   -2.1399  -22.2766 C   0  0  0  0  0  0  0  0  0  0  0  0
   -6.9253   -2.8770  -21.7224 N   0  0  0  0  0  0  0  0  0  0  0  0
   -6.5714   -4.2345  -22.2534 C   0  0  0  0  0  0  0  0  0  0  0  0
   -5.3884   -4.9716  -21.6993 O   0  0  0  0  0  0  0  0  0  0  0  0
   -7.4006   -4.8549  -23.3387 C   0  0  0  0  0  0  0  0  0  0  0  0
   -7.0467   -6.2123  -23.8697 C   0  0  0  0  0  0  0  0  0  0  0  0
   -7.8759   -6.8327  -24.9548 C   0  0  0  0  0  0  0  0  0  0  0  0
   -9.0589   -6.0955  -25.5090 C   0  0  0  0  0  0  0  0  0  0  0  0
   -9.8881   -6.7159  -26.5942 Cl  0  0  0  0  0  0  0  0  0  0  0  0
   -9.4127   -4.7381  -24.9780 C   0  0  0  0  0  0  0  0  0  0  0  0
   -8.5836   -4.1177  -23.8928 C   0  0  0  0  0  0  0  0  0  0  0  0
  -11.4165    0.2127  -23.6478 C   0  0  0  0  0  0  0  0  0  0  0  0
  -12.8541    0.1641  -23.2228 C   0  0  0  0  0  0  0  0  0  0  0  0
  -13.6499    1.4316  -23.1226 N   0  0  0  0  0  0  0  0  0  0  0  0
  -13.0079    2.7478  -23.4475 C   0  0  0  0  0  0  0  0  0  0  0  0
  -11.5702    2.7964  -23.8725 C   0  0  0  0  0  0  0  0  0  0  0  0
  -10.9282    4.1127  -24.1974 C   0  0  0  0  0  0  0  0  0  0  0  0
   -9.4905    4.1612  -24.6224 C   0  0  0  0  0  0  0  0  0  0  0  0
   -8.6949    2.8936  -24.7225 C   0  0  0  0  0  0  0  0  0  0  0  0
   -9.3368    1.5775  -24.3977 C   0  0  0  0  0  0  0  0  0  0  0  0
  -10.7744    1.5288  -23.9727 C   0  0  0  0  0  0  0  0  0  0  0  0
   -6.0961   -2.2566  -20.6372 C   0  0  0  0  0  0  0  0  0  0  0  0
   -6.3293   -0.8296  -20.2381 C   0  0  0  0  0  0  0  0  0  0  0  0
   -5.1661    0.1036  -20.0765 N   0  0  0  0  0  0  0  0  0  0  0  0
   -4.2218    0.7941  -21.0154 C   0  0  0  0  0  0  0  0  0  0  0  0
   -3.5211    1.4233  -19.8479 C   0  0  0  0  0  0  0  0  0  0  0  0
   -4.4653    0.7328  -18.9090 C   0  0  0  0  0  0  0  0  0  0  0  0
   -4.3751    0.7381  -19.9666 H   0  0  0  0  0  0  0  0  0  0  0  0
  2  1  1  0  0  0
  2  3  1  0  0  0
  3  4  1  0  0  0
  4 19  1  0  0  0
 19 20  2  0  0  0
 20 21  1  0  0  0
 21 22  2  0  0  0
 22 23  1  0  0  0
 23 24  2  0  0  0
 24 25  1  0  0  0
 25 26  2  0  0  0
 26 27  1  0  0  0
 27 28  2  0  0  0
  4  5  1  0  0  0
  5  6  2  0  0  0
  5  7  1  0  0  0
  7  8  1  0  0  0
  8  9  1  0  0  0
  9 29  1  0  0  0
 29 30  1  0  0  0
 30 31  1  0  0  0
 31 32  1  0  0  0
 32 33  1  0  0  0
 33 34  1  0  0  0
  9 10  1  0  0  0
 10 11  2  0  0  0
 10 12  1  0  0  0
 12 13  2  0  0  0
 13 14  1  0  0  0
 14 15  2  0  0  0
 15 16  1  0  0  0
 15 17  1  0  0  0
 17 18  2  0  0  0
  7  2  1  0  0  0
 34 31  1  0  0  0
 18 12  1  0  0  0
 28 19  1  0  0  0
 18  7  1  0  0  0
 28 23  1  0  0  0
 31 35  1  0  0  0
M  CHG 1  31   1
M  END
> <minimizedAffinity>
-8.24955

> <CNNscore>
0.2949275672

> <CNNaffinity>
6.3871312141

> <CNN_VS>
1.8837410212

> <CNNaffinity_variance>
0.1165192574

$$$$



 35 40  0  0  0  0  0  0  0  0999 V2000
  -10.3998    1.5596  -22.7053 C   0  0  0  0  0  0  0  0  0  0  0  0
   -9.1549    0.7400  -22.5361 C   0  0  0  0  0  0  0  0  0  0  0  0
   -8.0243    1.5460  -21.9686 C   0  0  0  0  0  0  0  0  0  0  0  0
   -6.8324    0.6447  -21.8377 N   0  0  0  0  0  0  0  0  0  0  0  0
   -7.2264   -0.7183  -22.3244 C   0  0  0  0  0  0  0  0  0  0  0  0
   -6.3406   -1.9279  -22.3711 O   0  0  0  0  0  0  0  0  0  0  0  0
   -8.6618   -0.6595  -22.7560 C   0  0  0  0  0  0  0  0  0  0  0  0
   -8.0304   -2.0102  -22.9198 C   0  0  0  0  0  0  0  0  0  0  0  0
   -8.8319   -3.1506  -23.4740 N   0  0  0  0  0  0  0  0  0  0  0  0
  -10.2648   -2.9402  -23.8644 C   0  0  0  0  0  0  0  0  0  0  0  0
  -11.0663   -4.0806  -24.4187 O   0  0  0  0  0  0  0  0  0  0  0  0
  -10.8963   -1.5895  -23.7007 C   0  0  0  0  0  0  0  0  0  0  0  0
  -12.3292   -1.3791  -24.0911 C   0  0  0  0  0  0  0  0  0  0  0  0
  -12.9606   -0.0284  -23.9274 C   0  0  0  0  0  0  0  0  0  0  0  0
  -12.1591    1.1120  -23.3731 C   0  0  0  0  0  0  0  0  0  0  0  0
  -12.7905    2.4627  -23.2094 Cl  0  0  0  0  0  0  0  0  0  0  0  0
  -10.7262    0.9016  -22.9827 C   0  0  0  0  0  0  0  0  0  0  0  0
  -10.0948   -0.4491  -23.1465 C   0  0  0  0  0  0  0  0  0  0  0  0
   -5.4835    1.0375  -21.3124 C   0  0  0  0  0  0  0  0  0  0  0  0
   -4.9714    0.4370  -20.0369 C   0  0  0  0  0  0  0  0  0  0  0  0
   -3.6224    0.8298  -19.5116 N   0  0  0  0  0  0  0  0  0  0  0  0
   -2.7855    1.8231  -20.2619 C   0  0  0  0  0  0  0  0  0  0  0  0
   -3.2976    2.4236  -21.5375 C   0  0  0  0  0  0  0  0  0  0  0  0
   -2.4607    3.4170  -22.2878 C   0  0  0  0  0  0  0  0  0  0  0  0
   -2.9729    4.0175  -23.5634 C   0  0  0  0  0  0  0  0  0  0  0  0
   -4.3218    3.6246  -24.0886 C   0  0  0  0  0  0  0  0  0  0  0  0
   -5.1587    2.6313  -23.3383 C   0  0  0  0  0  0  0  0  0  0  0  0
   -4.6466    2.0309  -22.0628 C   0  0  0  0  0  0  0  0  0  0  0  0
   -8.2004   -4.5013  -23.6377 C   0  0  0  0  0  0  0  0  0  0  0  0
   -7.6759   -4.9266  -24.9771 C   0  0  0  0  0  0  0  0  0  0  0  0
   -8.6267   -5.3761  -26.0466 N   0  0  0  0  0  0  0  0  0  0  0  0
   -9.3917   -6.6360  -26.3246 C   0  0  0  0  0  0  0  0  0  0  0  0
   -9.9713   -6.0116  -27.5592 C   0  0  0  0  0  0  0  0  0  0  0  0
   -9.2063   -4.7518  -27.2813 C   0  0  0  0  0  0  0  0  0  0  0  0
   -9.2732   -5.6817  -26.7739 H   0  0  0  0  0  0  0  0  0  0  0  0
  2  1  1  0  0  0
  2  3  1  0  0  0
  3  4  1  0  0  0
  4 19  1  0  0  0
 19 20  2  0  0  0
 20 21  1  0  0  0
 21 22  2  0  0  0
 22 23  1  0  0  0
 23 24  2  0  0  0
 24 25  1  0  0  0
 25 26  2  0  0  0
 26 27  1  0  0  0
 27 28  2  0  0  0
  4  5  1  0  0  0
  5  6  2  0  0  0
  5  7  1  0  0  0
  7  8  1  0  0  0
  8  9  1  0  0  0
  9 29  1  0  0  0
 29 30  1  0  0  0
 30 31  1  0  0  0
 31 32  1  0  0  0
 32 33  1  0  0  0
 33 34  1  0  0  0
  9 10  1  0  0  0
 10 11  2  0  0  0
 10 12  1  0  0  0
 12 13  2  0  0  0
 13 14  1  0  0  0
 14 15  2  0  0  0
 15 16  1  0  0  0
 15 17  1  0  0  0
 17 18  2  0  0  0
  7  2  1  0  0  0
 34 31  1  0  0  0
 18 12  1  0  0  0
 28 19  1  0  0  0
 18  7  1  0  0  0
 28 23  1  0  0  0
 31 35  1  0  0  0
M  CHG 1  31   1
M  END
> <minimizedAffinity>
-7.53567

> <CNNscore>
0.2862008810

> <CNNaffinity>
6.2355723381

> <CNN_VS>
1.7846262455

> <CNNaffinity_variance>
0.2874198854

$$$$



 35 40  0  0  0  0  0  0  0  0999 V2000
  -10.4841    2.5099  -23.6964 C   0  0  0  0  0  0  0  0  0  0  0  0
   -9.2573    1.6522  -23.5996 C   0  0  0  0  0  0  0  0  0  0  0  0
   -7.9977    2.4644  -23.6615 C   0  0  0  0  0  0  0  0  0  0  0  0
   -6.8340    1.5236  -23.5577 N   0  0  0  0  0  0  0  0  0  0  0  0
   -7.3745    0.1300  -23.4316 C   0  0  0  0  0  0  0  0  0  0  0  0
   -6.5602   -1.1231  -23.3023 O   0  0  0  0  0  0  0  0  0  0  0  0
   -8.8722    0.2095  -23.4576 C   0  0  0  0  0  0  0  0  0  0  0  0
   -8.3376   -1.1850  -23.3182 C   0  0  0  0  0  0  0  0  0  0  0  0
   -9.2840   -2.3446  -23.2194 N   0  0  0  0  0  0  0  0  0  0  0  0
  -10.7649   -2.1097  -23.2599 C   0  0  0  0  0  0  0  0  0  0  0  0
  -11.7112   -3.2692  -23.1611 O   0  0  0  0  0  0  0  0  0  0  0  0
  -11.2995   -0.7151  -23.3993 C   0  0  0  0  0  0  0  0  0  0  0  0
  -12.7804   -0.4801  -23.4398 C   0  0  0  0  0  0  0  0  0  0  0  0
  -13.3149    0.9145  -23.5791 C   0  0  0  0  0  0  0  0  0  0  0  0
  -12.3686    2.0740  -23.6780 C   0  0  0  0  0  0  0  0  0  0  0  0
  -12.9032    3.4686  -23.8173 Cl  0  0  0  0  0  0  0  0  0  0  0  0
  -10.8877    1.8391  -23.6374 C   0  0  0  0  0  0  0  0  0  0  0  0
  -10.3531    0.4445  -23.4981 C   0  0  0  0  0  0  0  0  0  0  0  0
   -5.3844    1.9086  -23.5766 C   0  0  0  0  0  0  0  0  0  0  0  0
   -4.7527    2.3896  -24.8491 C   0  0  0  0  0  0  0  0  0  0  0  0
   -3.3032    2.7747  -24.8680 N   0  0  0  0  0  0  0  0  0  0  0  0
   -2.4853    2.6788  -23.6143 C   0  0  0  0  0  0  0  0  0  0  0  0
   -3.1170    2.1978  -22.3417 C   0  0  0  0  0  0  0  0  0  0  0  0
   -2.2991    2.1019  -21.0879 C   0  0  0  0  0  0  0  0  0  0  0  0
   -2.9309    1.6208  -19.8153 C   0  0  0  0  0  0  0  0  0  0  0  0
   -4.3805    1.2358  -19.7965 C   0  0  0  0  0  0  0  0  0  0  0  0
   -5.1983    1.3317  -21.0502 C   0  0  0  0  0  0  0  0  0  0  0  0
   -4.5666    1.8127  -22.3228 C   0  0  0  0  0  0  0  0  0  0  0  0
   -8.7494   -3.7392  -23.0801 C   0  0  0  0  0  0  0  0  0  0  0  0
   -8.1315   -4.4271  -24.2612 C   0  0  0  0  0  0  0  0  0  0  0  0
   -8.9837   -5.2532  -25.1783 N   0  0  0  0  0  0  0  0  0  0  0  0
   -8.9106   -6.6484  -25.7243 C   0  0  0  0  0  0  0  0  0  0  0  0
  -10.1890   -6.4214  -26.4754 C   0  0  0  0  0  0  0  0  0  0  0  0
  -10.2621   -5.0263  -25.9295 C   0  0  0  0  0  0  0  0  0  0  0  0
   -9.5632   -5.8149  -25.8020 H   0  0  0  0  0  0  0  0  0  0  0  0
  2  1  1  0  0  0
  2  3  1  0  0  0
  3  4  1  0  0  0
  4 19  1  0  0  0
 19 20  2  0  0  0
 20 21  1  0  0  0
 21 22  2  0  0  0
 22 23  1  0  0  0
 23 24  2  0  0  0
 24 25  1  0  0  0
 25 26  2  0  0  0
 26 27  1  0  0  0
 27 28  2  0  0  0
  4  5  1  0  0  0
  5  6  2  0  0  0
  5  7  1  0  0  0
  7  8  1  0  0  0
  8  9  1  0  0  0
  9 29  1  0  0  0
 29 30  1  0  0  0
 30 31  1  0  0  0
 31 32  1  0  0  0
 32 33  1  0  0  0
 33 34  1  0  0  0
  9 10  1  0  0  0
 10 11  2  0  0  0
 10 12  1  0  0  0
 12 13  2  0  0  0
 13 14  1  0  0  0
 14 15  2  0  0  0
 15 16  1  0  0  0
 15 17  1  0  0  0
 17 18  2  0  0  0
  7  2  1  0  0  0
 34 31  1  0  0  0
 18 12  1  0  0  0
 28 19  1  0  0  0
 18  7  1  0  0  0
 28 23  1  0  0  0
 31 35  1  0  0  0
M  CHG 1  31   1
M  END
> <minimizedAffinity>
-7.77086

> <CNNscore>
0.2727539837

> <CNNaffinity>
6.1714401245

> <CNN_VS>
1.6832848787

> <CNNaffinity_variance>
0.1454611123

$$$$



 35 40  0  0  0  0  0  0  0  0999 V2000
   -7.4141   -5.0363  -23.3358 C   0  0  0  0  0  0  0  0  0  0  0  0
   -7.1619   -3.5660  -23.1782 C   0  0  0  0  0  0  0  0  0  0  0  0
   -6.7022   -3.2202  -21.7929 C   0  0  0  0  0  0  0  0  0  0  0  0
   -6.4781   -1.7381  -21.7354 N   0  0  0  0  0  0  0  0  0  0  0  0
   -6.7992   -1.1681  -23.0852 C   0  0  0  0  0  0  0  0  0  0  0  0
   -6.7129    0.2778  -23.4749 O   0  0  0  0  0  0  0  0  0  0  0  0
   -7.2218   -2.2978  -23.9769 C   0  0  0  0  0  0  0  0  0  0  0  0
   -7.2330   -0.9554  -24.6461 C   0  0  0  0  0  0  0  0  0  0  0  0
   -7.6435   -0.8376  -26.0840 N   0  0  0  0  0  0  0  0  0  0  0  0
   -8.0428   -2.0621  -26.8528 C   0  0  0  0  0  0  0  0  0  0  0  0
   -8.4533   -1.9443  -28.2907 O   0  0  0  0  0  0  0  0  0  0  0  0
   -8.0317   -3.4046  -26.1836 C   0  0  0  0  0  0  0  0  0  0  0  0
   -8.4310   -4.6291  -26.9523 C   0  0  0  0  0  0  0  0  0  0  0  0
   -8.4199   -5.9715  -26.2831 C   0  0  0  0  0  0  0  0  0  0  0  0
   -8.0094   -6.0893  -24.8452 C   0  0  0  0  0  0  0  0  0  0  0  0
   -7.9982   -7.4318  -24.1761 Cl  0  0  0  0  0  0  0  0  0  0  0  0
   -7.6100   -4.8648  -24.0765 C   0  0  0  0  0  0  0  0  0  0  0  0
   -7.6212   -3.5224  -24.7457 C   0  0  0  0  0  0  0  0  0  0  0  0
   -6.0142   -0.9623  -20.5384 C   0  0  0  0  0  0  0  0  0  0  0  0
   -6.7728   -1.0506  -19.2474 C   0  0  0  0  0  0  0  0  0  0  0  0
   -6.3090   -0.2748  -18.0504 N   0  0  0  0  0  0  0  0  0  0  0  0
   -5.0865    0.5893  -18.1443 C   0  0  0  0  0  0  0  0  0  0  0  0
   -4.3279    0.6776  -19.4354 C   0  0  0  0  0  0  0  0  0  0  0  0
   -3.1053    1.5418  -19.5293 C   0  0  0  0  0  0  0  0  0  0  0  0
   -2.3468    1.6300  -20.8203 C   0  0  0  0  0  0  0  0  0  0  0  0
   -2.8107    0.8542  -22.0173 C   0  0  0  0  0  0  0  0  0  0  0  0
   -4.0331   -0.0099  -21.9234 C   0  0  0  0  0  0  0  0  0  0  0  0
   -4.7917   -0.0982  -20.6324 C   0  0  0  0  0  0  0  0  0  0  0  0
   -7.6546    0.5049  -26.7532 C   0  0  0  0  0  0  0  0  0  0  0  0
   -6.3747    1.2681  -26.9247 C   0  0  0  0  0  0  0  0  0  0  0  0
   -5.0754    0.6620  -26.4840 N   0  0  0  0  0  0  0  0  0  0  0  0
   -3.9858    1.0634  -25.5344 C   0  0  0  0  0  0  0  0  0  0  0  0
   -3.2377   -0.1952  -25.8607 C   0  0  0  0  0  0  0  0  0  0  0  0
   -4.3273   -0.5966  -26.8102 C   0  0  0  0  0  0  0  0  0  0  0  0
   -4.1918    0.2499  -26.1843 H   0  0  0  0  0  0  0  0  0  0  0  0
  2  1  1  0  0  0
  2  3  1  0  0  0
  3  4  1  0  0  0
  4 19  1  0  0  0
 19 20  2  0  0  0
 20 21  1  0  0  0
 21 22  2  0  0  0
 22 23  1  0  0  0
 23 24  2  0  0  0
 24 25  1  0  0  0
 25 26  2  0  0  0
 26 27  1  0  0  0
 27 28  2  0  0  0
  4  5  1  0  0  0
  5  6  2  0  0  0
  5  7  1  0  0  0
  7  8  1  0  0  0
  8  9  1  0  0  0
  9 29  1  0  0  0
 29 30  1  0  0  0
 30 31  1  0  0  0
 31 32  1  0  0  0
 32 33  1  0  0  0
 33 34  1  0  0  0
  9 10  1  0  0  0
 10 11  2  0  0  0
 10 12  1  0  0  0
 12 13  2  0  0  0
 13 14  1  0  0  0
 14 15  2  0  0  0
 15 16  1  0  0  0
 15 17  1  0  0  0
 17 18  2  0  0  0
  7  2  1  0  0  0
 34 31  1  0  0  0
 18 12  1  0  0  0
 28 19  1  0  0  0
 18  7  1  0  0  0
 28 23  1  0  0  0
 31 35  1  0  0  0
M  CHG 1  31   1
M  END
> <minimizedAffinity>
-7.09288

> <CNNscore>
0.2587078214

> <CNNaffinity>
5.9649443626

> <CNN_VS>
1.5431777239

> <CNNaffinity_variance>
0.1222199351

$$$$
