


 42 47  0  0  0  0  0  0  0  0999 V2000
   10.1834    0.2739   23.0272 N   0  0  0  0  0  0  0  0  0  0  0  0
    8.9641   -0.5888   22.8894 C   0  0  0  0  0  0  0  0  0  0  0  0
    8.8593   -1.8686   23.6647 C   0  0  0  0  0  0  0  0  0  0  0  0
    8.6143   -3.1683   24.3724 C   0  0  0  0  0  0  0  0  0  0  0  0
    9.1543   -3.9112   25.1678 O   0  0  0  0  0  0  0  0  0  0  0  0
    7.2744   -3.6860   23.9402 N   0  0  0  0  0  0  0  0  0  0  0  0
    6.6914   -2.7063   22.9654 C   0  0  0  0  0  0  0  0  0  0  0  0
    7.6709   -1.5831   22.7952 C   0  0  0  0  0  0  0  0  0  0  0  0
    9.9739   -2.2857   24.5778 C   0  0  0  0  0  0  0  0  0  0  0  0
    9.8692   -3.5655   25.3531 C   0  0  0  0  0  0  0  0  0  0  0  0
   10.9838   -3.9826   26.2661 C   0  0  0  0  0  0  0  0  0  0  0  0
   10.8791   -5.2625   27.0415 Cl  0  0  0  0  0  0  0  0  0  0  0  0
   12.2031   -3.1199   26.4039 C   0  0  0  0  0  0  0  0  0  0  0  0
   12.3079   -1.8401   25.6286 C   0  0  0  0  0  0  0  0  0  0  0  0
   11.1933   -1.4230   24.7155 C   0  0  0  0  0  0  0  0  0  0  0  0
   11.2980   -0.1432   23.9402 C   0  0  0  0  0  0  0  0  0  0  0  0
   12.5173    0.7195   24.0779 O   0  0  0  0  0  0  0  0  0  0  0  0
    6.6307   -4.9598   24.4017 C   0  0  0  0  0  0  0  0  0  0  0  0
    7.0851   -6.2754   23.8423 C   0  0  0  0  0  0  0  0  0  0  0  0
    6.4413   -7.5492   24.3038 N   0  0  0  0  0  0  0  0  0  0  0  0
    5.3433   -7.5074   25.3248 C   0  0  0  0  0  0  0  0  0  0  0  0
    4.8889   -6.1919   25.8843 C   0  0  0  0  0  0  0  0  0  0  0  0
    3.7908   -6.1502   26.9053 C   0  0  0  0  0  0  0  0  0  0  0  0
    3.3365   -4.8346   27.4647 C   0  0  0  0  0  0  0  0  0  0  0  0
    3.9802   -3.5608   27.0032 C   0  0  0  0  0  0  0  0  0  0  0  0
    5.0783   -3.6025   25.9822 C   0  0  0  0  0  0  0  0  0  0  0  0
    5.5326   -4.9181   25.4227 C   0  0  0  0  0  0  0  0  0  0  0  0
   10.2881    1.5537   22.2518 C   0  0  0  0  0  0  0  0  0  0  0  0
    7.8911    4.5111   23.3737 C   0  0  0  0  0  0  0  0  0  0  0  0
    9.0297    3.5346   23.3665 N   0  0  0  0  0  0  0  0  0  0  0  0
    9.1495    2.5302   22.2589 C   0  0  0  0  0  0  0  0  0  0  0  0
    8.1306    2.5023   21.1584 O   0  0  0  0  0  0  0  0  0  0  0  0
    9.6984    3.5529   24.0888 H   0  0  0  0  0  0  0  0  0  0  0  0
    7.4931   -0.3847   21.9107 C   0  0  0  0  0  0  0  0  0  0  0  0
    7.1645   -0.5665   20.4585 N   0  0  0  0  0  0  0  0  0  0  0  0
    7.6965   -1.1847   19.9071 H   0  0  0  0  0  0  0  0  0  0  0  0
    6.0254    0.1936   19.8464 C   0  0  0  0  0  0  0  0  0  0  0  0
    5.0281    0.8876   20.7261 C   0  0  0  0  0  0  0  0  0  0  0  0
    3.8890    1.6476   20.1141 C   0  0  0  0  0  0  0  0  0  0  0  0
    3.7471    1.7137   18.6222 C   0  0  0  0  0  0  0  0  0  0  0  0
    4.7443    1.0198   17.7425 C   0  0  0  0  0  0  0  0  0  0  0  0
    5.8834    0.2597   18.3546 C   0  0  0  0  0  0  0  0  0  0  0  0
 29 30  1  0  0  0
 30 31  1  0  0  0
 31 32  2  0  0  0
 31 28  1  0  0  0
 28  1  1  0  0  0
  1  2  1  0  0  0
  3  2  1  0  0  0
  3  4  1  0  0  0
  4  5  2  0  0  0
  4  6  1  0  0  0
  6 18  1  0  0  0
 18 19  2  0  0  0
 19 20  1  0  0  0
 20 21  2  0  0  0
 21 22  1  0  0  0
 22 23  2  0  0  0
 23 24  1  0  0  0
 24 25  2  0  0  0
 25 26  1  0  0  0
 26 27  2  0  0  0
  6  7  1  0  0  0
  7  8  1  0  0  0
  8 34  1  0  0  0
 34 35  1  0  0  0
 35 37  1  0  0  0
 37 38  2  0  0  0
 38 39  1  0  0  0
 39 40  2  0  0  0
 40 41  1  0  0  0
 41 42  2  0  0  0
  3  9  1  0  0  0
  9 10  2  0  0  0
 10 11  1  0  0  0
 11 12  1  0  0  0
 11 13  2  0  0  0
 13 14  1  0  0  0
 14 15  2  0  0  0
 15 16  1  0  0  0
 16 17  2  0  0  0
 16  1  1  0  0  0
  8  3  1  0  0  0
 42 37  1  0  0  0
 15  9  1  0  0  0
 27 18  1  0  0  0
 27 22  1  0  0  0
 30 33  1  0  0  0
 35 36  1  0  0  0
M  END
> <minimizedAffinity>
-9.33517

> <CNNscore>
0.4017990828

> <CNNaffinity>
7.0911073685

> <CNN_VS>
2.8492004871

> <CNNaffinity_variance>
0.1940065771

$$$$



 42 47  0  0  0  0  0  0  0  0999 V2000
   10.0903    0.7590   23.1895 N   0  0  0  0  0  0  0  0  0  0  0  0
    8.7221    0.1837   23.4064 C   0  0  0  0  0  0  0  0  0  0  0  0
    8.5405   -0.9987   24.3113 C   0  0  0  0  0  0  0  0  0  0  0  0
    8.2056   -2.1727   25.1828 C   0  0  0  0  0  0  0  0  0  0  0  0
    8.7518   -2.9751   25.9138 O   0  0  0  0  0  0  0  0  0  0  0  0
    6.7251   -2.4006   25.1049 N   0  0  0  0  0  0  0  0  0  0  0  0
    6.1449   -1.3674   24.1851 C   0  0  0  0  0  0  0  0  0  0  0  0
    7.2669   -0.5010   23.6947 C   0  0  0  0  0  0  0  0  0  0  0  0
    9.7271   -1.6058   24.9994 C   0  0  0  0  0  0  0  0  0  0  0  0
    9.5455   -2.7882   25.9043 C   0  0  0  0  0  0  0  0  0  0  0  0
   10.7320   -3.3953   26.5924 C   0  0  0  0  0  0  0  0  0  0  0  0
   10.5504   -4.5777   27.4974 Cl  0  0  0  0  0  0  0  0  0  0  0  0
   12.1002   -2.8200   26.3755 C   0  0  0  0  0  0  0  0  0  0  0  0
   12.2819   -1.6376   25.4706 C   0  0  0  0  0  0  0  0  0  0  0  0
   11.0953   -1.0305   24.7826 C   0  0  0  0  0  0  0  0  0  0  0  0
   11.2769    0.1520   23.8776 C   0  0  0  0  0  0  0  0  0  0  0  0
   12.6451    0.7273   23.6607 O   0  0  0  0  0  0  0  0  0  0  0  0
    5.9593   -3.4733   25.8209 C   0  0  0  0  0  0  0  0  0  0  0  0
    5.5777   -4.7316   25.0989 C   0  0  0  0  0  0  0  0  0  0  0  0
    4.8118   -5.8043   25.8150 N   0  0  0  0  0  0  0  0  0  0  0  0
    4.4276   -5.6188   27.2530 C   0  0  0  0  0  0  0  0  0  0  0  0
    4.8092   -4.3606   27.9750 C   0  0  0  0  0  0  0  0  0  0  0  0
    4.4250   -4.1751   29.4131 C   0  0  0  0  0  0  0  0  0  0  0  0
    4.8066   -2.9168   30.1350 C   0  0  0  0  0  0  0  0  0  0  0  0
    5.5725   -1.8441   29.4189 C   0  0  0  0  0  0  0  0  0  0  0  0
    5.9567   -2.0296   27.9809 C   0  0  0  0  0  0  0  0  0  0  0  0
    5.5751   -3.2878   27.2589 C   0  0  0  0  0  0  0  0  0  0  0  0
   10.2719    1.9415   22.2846 C   0  0  0  0  0  0  0  0  0  0  0  0
   10.5314    5.8338   23.0142 C   0  0  0  0  0  0  0  0  0  0  0  0
   10.8742    4.4571   22.5273 N   0  0  0  0  0  0  0  0  0  0  0  0
    9.9291    3.3182   22.7715 C   0  0  0  0  0  0  0  0  0  0  0  0
    8.6411    3.5560   23.5027 O   0  0  0  0  0  0  0  0  0  0  0  0
   11.7195    4.3010   22.0474 H   0  0  0  0  0  0  0  0  0  0  0  0
    7.1378    0.6594   22.7530 C   0  0  0  0  0  0  0  0  0  0  0  0
    5.7899    1.0483   22.2222 N   0  0  0  0  0  0  0  0  0  0  0  0
    5.0876    1.3557   22.8399 H   0  0  0  0  0  0  0  0  0  0  0  0
    5.5119    0.9690   20.7503 C   0  0  0  0  0  0  0  0  0  0  0  0
    4.3016    1.6456   20.1782 C   0  0  0  0  0  0  0  0  0  0  0  0
    4.0236    1.5663   18.7064 C   0  0  0  0  0  0  0  0  0  0  0  0
    4.9560    0.8105   17.8066 C   0  0  0  0  0  0  0  0  0  0  0  0
    6.1663    0.1340   18.3787 C   0  0  0  0  0  0  0  0  0  0  0  0
    6.4443    0.2132   19.8506 C   0  0  0  0  0  0  0  0  0  0  0  0
 29 30  1  0  0  0
 30 31  1  0  0  0
 31 32  2  0  0  0
 31 28  1  0  0  0
 28  1  1  0  0  0
  1  2  1  0  0  0
  3  2  1  0  0  0
  3  4  1  0  0  0
  4  5  2  0  0  0
  4  6  1  0  0  0
  6 18  1  0  0  0
 18 19  2  0  0  0
 19 20  1  0  0  0
 20 21  2  0  0  0
 21 22  1  0  0  0
 22 23  2  0  0  0
 23 24  1  0  0  0
 24 25  2  0  0  0
 25 26  1  0  0  0
 26 27  2  0  0  0
  6  7  1  0  0  0
  7  8  1  0  0  0
  8 34  1  0  0  0
 34 35  1  0  0  0
 35 37  1  0  0  0
 37 38  2  0  0  0
 38 39  1  0  0  0
 39 40  2  0  0  0
 40 41  1  0  0  0
 41 42  2  0  0  0
  3  9  1  0  0  0
  9 10  2  0  0  0
 10 11  1  0  0  0
 11 12  1  0  0  0
 11 13  2  0  0  0
 13 14  1  0  0  0
 14 15  2  0  0  0
 15 16  1  0  0  0
 16 17  2  0  0  0
 16  1  1  0  0  0
  8  3  1  0  0  0
 42 37  1  0  0  0
 15  9  1  0  0  0
 27 18  1  0  0  0
 27 22  1  0  0  0
 30 33  1  0  0  0
 35 36  1  0  0  0
M  END
> <minimizedAffinity>
-8.86259

> <CNNscore>
0.2042002380

> <CNNaffinity>
6.5611939430

> <CNN_VS>
1.3397973776

> <CNNaffinity_variance>
0.2690740824

$$$$



 42 47  0  0  0  0  0  0  0  0999 V2000
    8.5561   -3.2761   25.6903 N   0  0  0  0  0  0  0  0  0  0  0  0
    8.1399   -2.5997   24.4178 C   0  0  0  0  0  0  0  0  0  0  0  0
    6.8936   -1.7657   24.3846 C   0  0  0  0  0  0  0  0  0  0  0  0
    5.6791   -0.9050   24.2000 C   0  0  0  0  0  0  0  0  0  0  0  0
    4.7338   -0.4806   24.8346 O   0  0  0  0  0  0  0  0  0  0  0  0
    5.6537   -0.4386   22.7746 N   0  0  0  0  0  0  0  0  0  0  0  0
    6.8526   -1.0111   22.0782 C   0  0  0  0  0  0  0  0  0  0  0  0
    7.6188   -1.8313   23.0732 C   0  0  0  0  0  0  0  0  0  0  0  0
    6.0634   -1.6081   25.6240 C   0  0  0  0  0  0  0  0  0  0  0  0
    4.8171   -0.7742   25.5908 C   0  0  0  0  0  0  0  0  0  0  0  0
    3.9870   -0.6166   26.8302 C   0  0  0  0  0  0  0  0  0  0  0  0
    2.7406    0.2174   26.7970 Cl  0  0  0  0  0  0  0  0  0  0  0  0
    4.4032   -1.2930   28.1027 C   0  0  0  0  0  0  0  0  0  0  0  0
    5.6495   -2.1269   28.1359 C   0  0  0  0  0  0  0  0  0  0  0  0
    6.4796   -2.2845   26.8965 C   0  0  0  0  0  0  0  0  0  0  0  0
    7.7260   -3.1185   26.9296 C   0  0  0  0  0  0  0  0  0  0  0  0
    8.1422   -3.7949   28.2021 O   0  0  0  0  0  0  0  0  0  0  0  0
    4.6123    0.4450   22.1545 C   0  0  0  0  0  0  0  0  0  0  0  0
    3.5596    1.0804   23.0136 C   0  0  0  0  0  0  0  0  0  0  0  0
    2.5182    1.9641   22.3935 N   0  0  0  0  0  0  0  0  0  0  0  0
    2.5295    2.2124   20.9142 C   0  0  0  0  0  0  0  0  0  0  0  0
    3.5822    1.5770   20.0551 C   0  0  0  0  0  0  0  0  0  0  0  0
    3.5935    1.8253   18.5758 C   0  0  0  0  0  0  0  0  0  0  0  0
    4.6462    1.1899   17.7167 C   0  0  0  0  0  0  0  0  0  0  0  0
    5.6876    0.3062   18.3368 C   0  0  0  0  0  0  0  0  0  0  0  0
    5.6763    0.0579   19.8161 C   0  0  0  0  0  0  0  0  0  0  0  0
    4.6236    0.6933   20.6752 C   0  0  0  0  0  0  0  0  0  0  0  0
    9.8025   -4.1100   25.7234 C   0  0  0  0  0  0  0  0  0  0  0  0
   13.4593   -2.9116   26.6937 C   0  0  0  0  0  0  0  0  0  0  0  0
   12.1141   -3.5697   26.7791 N   0  0  0  0  0  0  0  0  0  0  0  0
   11.1478   -3.4519   25.6380 C   0  0  0  0  0  0  0  0  0  0  0  0
   11.5266   -2.6761   24.4114 O   0  0  0  0  0  0  0  0  0  0  0  0
   11.8655   -4.0789   27.5842 H   0  0  0  0  0  0  0  0  0  0  0  0
    8.8877   -2.5848   22.8041 C   0  0  0  0  0  0  0  0  0  0  0  0
    9.8916   -2.0401   21.8319 N   0  0  0  0  0  0  0  0  0  0  0  0
   10.0188   -2.4772   20.9590 H   0  0  0  0  0  0  0  0  0  0  0  0
   10.7017   -0.8294   22.1895 C   0  0  0  0  0  0  0  0  0  0  0  0
   10.0136    0.4435   22.5847 C   0  0  0  0  0  0  0  0  0  0  0  0
   10.8237    1.6542   22.9423 C   0  0  0  0  0  0  0  0  0  0  0  0
   12.3220    1.5920   22.9047 C   0  0  0  0  0  0  0  0  0  0  0  0
   13.0101    0.3191   22.5096 C   0  0  0  0  0  0  0  0  0  0  0  0
   12.2000   -0.8916   22.1519 C   0  0  0  0  0  0  0  0  0  0  0  0
 29 30  1  0  0  0
 30 31  1  0  0  0
 31 32  2  0  0  0
 31 28  1  0  0  0
 28  1  1  0  0  0
  1  2  1  0  0  0
  3  2  1  0  0  0
  3  4  1  0  0  0
  4  5  2  0  0  0
  4  6  1  0  0  0
  6 18  1  0  0  0
 18 19  2  0  0  0
 19 20  1  0  0  0
 20 21  2  0  0  0
 21 22  1  0  0  0
 22 23  2  0  0  0
 23 24  1  0  0  0
 24 25  2  0  0  0
 25 26  1  0  0  0
 26 27  2  0  0  0
  6  7  1  0  0  0
  7  8  1  0  0  0
  8 34  1  0  0  0
 34 35  1  0  0  0
 35 37  1  0  0  0
 37 38  2  0  0  0
 38 39  1  0  0  0
 39 40  2  0  0  0
 40 41  1  0  0  0
 41 42  2  0  0  0
  3  9  1  0  0  0
  9 10  2  0  0  0
 10 11  1  0  0  0
 11 12  1  0  0  0
 11 13  2  0  0  0
 13 14  1  0  0  0
 14 15  2  0  0  0
 15 16  1  0  0  0
 16 17  2  0  0  0
 16  1  1  0  0  0
  8  3  1  0  0  0
 42 37  1  0  0  0
 15  9  1  0  0  0
 27 18  1  0  0  0
 27 22  1  0  0  0
 30 33  1  0  0  0
 35 36  1  0  0  0
M  END
> <minimizedAffinity>
-8.81402

> <CNNscore>
0.1956773698

> <CNNaffinity>
6.5601530075

> <CNN_VS>
1.2836735249

> <CNNaffinity_variance>
0.2290395796

$$$$



 42 47  0  0  0  0  0  0  0  0999 V2000
    5.0087    1.3022   21.7667 N   0  0  0  0  0  0  0  0  0  0  0  0
    5.9030    0.1188   21.9897 C   0  0  0  0  0  0  0  0  0  0  0  0
    7.3325    0.3247   22.3948 C   0  0  0  0  0  0  0  0  0  0  0  0
    8.7758    0.3742   22.8002 C   0  0  0  0  0  0  0  0  0  0  0  0
    9.6419    1.1853   23.0616 O   0  0  0  0  0  0  0  0  0  0  0  0
    9.2758   -1.0359   22.9075 N   0  0  0  0  0  0  0  0  0  0  0  0
    8.1415   -1.9570   22.5684 C   0  0  0  0  0  0  0  0  0  0  0  0
    6.9405   -1.1161   22.2516 C   0  0  0  0  0  0  0  0  0  0  0  0
    7.8677    1.7141   22.5770 C   0  0  0  0  0  0  0  0  0  0  0  0
    9.2972    1.9200   22.9822 C   0  0  0  0  0  0  0  0  0  0  0  0
    9.8323    3.3094   23.1643 C   0  0  0  0  0  0  0  0  0  0  0  0
   11.2619    3.5154   23.5695 Cl  0  0  0  0  0  0  0  0  0  0  0  0
    8.9380    4.4928   22.9413 C   0  0  0  0  0  0  0  0  0  0  0  0
    7.5086    4.2869   22.5362 C   0  0  0  0  0  0  0  0  0  0  0  0
    6.9734    2.8976   22.3540 C   0  0  0  0  0  0  0  0  0  0  0  0
    5.5439    2.6916   21.9489 C   0  0  0  0  0  0  0  0  0  0  0  0
    4.6496    3.8750   21.7259 O   0  0  0  0  0  0  0  0  0  0  0  0
   10.6660   -1.4519   23.2872 C   0  0  0  0  0  0  0  0  0  0  0  0
   11.8222   -1.1055   22.3965 C   0  0  0  0  0  0  0  0  0  0  0  0
   13.2124   -1.5215   22.7763 N   0  0  0  0  0  0  0  0  0  0  0  0
   13.4465   -2.2839   24.0467 C   0  0  0  0  0  0  0  0  0  0  0  0
   12.2903   -2.6303   24.9374 C   0  0  0  0  0  0  0  0  0  0  0  0
   12.5244   -3.3927   26.2078 C   0  0  0  0  0  0  0  0  0  0  0  0
   11.3682   -3.7391   27.0985 C   0  0  0  0  0  0  0  0  0  0  0  0
    9.9780   -3.3231   26.7188 C   0  0  0  0  0  0  0  0  0  0  0  0
    9.7439   -2.5607   25.4483 C   0  0  0  0  0  0  0  0  0  0  0  0
   10.9001   -2.2143   24.5576 C   0  0  0  0  0  0  0  0  0  0  0  0
    3.5792    1.0962   21.3615 C   0  0  0  0  0  0  0  0  0  0  0  0
    1.3493    3.8733   19.6107 C   0  0  0  0  0  0  0  0  0  0  0  0
    1.9600    3.0077   20.6727 N   0  0  0  0  0  0  0  0  0  0  0  0
    2.9685    1.9619   20.2996 C   0  0  0  0  0  0  0  0  0  0  0  0
    3.3662    1.7816   18.8645 O   0  0  0  0  0  0  0  0  0  0  0  0
    1.6990    3.1260   21.6145 H   0  0  0  0  0  0  0  0  0  0  0  0
    5.5853   -1.6264   21.8602 C   0  0  0  0  0  0  0  0  0  0  0  0
    5.4059   -3.0679   21.4865 N   0  0  0  0  0  0  0  0  0  0  0  0
    5.1019   -3.3076   20.5813 H   0  0  0  0  0  0  0  0  0  0  0  0
    5.6895   -4.1443   22.4920 C   0  0  0  0  0  0  0  0  0  0  0  0
    6.2406   -5.4647   22.0418 C   0  0  0  0  0  0  0  0  0  0  0  0
    6.5242   -6.5411   23.0471 C   0  0  0  0  0  0  0  0  0  0  0  0
    6.2566   -6.2971   24.5028 C   0  0  0  0  0  0  0  0  0  0  0  0
    5.7055   -4.9767   24.9530 C   0  0  0  0  0  0  0  0  0  0  0  0
    5.4219   -3.9003   23.9476 C   0  0  0  0  0  0  0  0  0  0  0  0
 29 30  1  0  0  0
 30 31  1  0  0  0
 31 32  2  0  0  0
 31 28  1  0  0  0
 28  1  1  0  0  0
  1  2  1  0  0  0
  3  2  1  0  0  0
  3  4  1  0  0  0
  4  5  2  0  0  0
  4  6  1  0  0  0
  6 18  1  0  0  0
 18 19  2  0  0  0
 19 20  1  0  0  0
 20 21  2  0  0  0
 21 22  1  0  0  0
 22 23  2  0  0  0
 23 24  1  0  0  0
 24 25  2  0  0  0
 25 26  1  0  0  0
 26 27  2  0  0  0
  6  7  1  0  0  0
  7  8  1  0  0  0
  8 34  1  0  0  0
 34 35  1  0  0  0
 35 37  1  0  0  0
 37 38  2  0  0  0
 38 39  1  0  0  0
 39 40  2  0  0  0
 40 41  1  0  0  0
 41 42  2  0  0  0
  3  9  1  0  0  0
  9 10  2  0  0  0
 10 11  1  0  0  0
 11 12  1  0  0  0
 11 13  2  0  0  0
 13 14  1  0  0  0
 14 15  2  0  0  0
 15 16  1  0  0  0
 16 17  2  0  0  0
 16  1  1  0  0  0
  8  3  1  0  0  0
 42 37  1  0  0  0
 15  9  1  0  0  0
 27 18  1  0  0  0
 27 22  1  0  0  0
 30 33  1  0  0  0
 35 36  1  0  0  0
M  END
> <minimizedAffinity>
-8.00297

> <CNNscore>
0.1873433143

> <CNNaffinity>
6.7535142899

> <CNN_VS>
1.2652257681

> <CNNaffinity_variance>
0.0508047231

$$$$



 42 47  0  0  0  0  0  0  0  0999 V2000
   10.0091    0.2356   22.7949 N   0  0  0  0  0  0  0  0  0  0  0  0
    8.7320   -0.5510   22.8106 C   0  0  0  0  0  0  0  0  0  0  0  0
    8.6245   -1.7901   23.6490 C   0  0  0  0  0  0  0  0  0  0  0  0
    8.3700   -3.0426   24.4342 C   0  0  0  0  0  0  0  0  0  0  0  0
    8.9377   -3.7874   25.2084 O   0  0  0  0  0  0  0  0  0  0  0  0
    6.9659   -3.4889   24.1527 N   0  0  0  0  0  0  0  0  0  0  0  0
    6.3526   -2.5122   23.1935 C   0  0  0  0  0  0  0  0  0  0  0  0
    7.3777   -1.4623   22.8822 C   0  0  0  0  0  0  0  0  0  0  0  0
    9.7942   -2.2427   24.4719 C   0  0  0  0  0  0  0  0  0  0  0  0
    9.6868   -3.4817   25.3104 C   0  0  0  0  0  0  0  0  0  0  0  0
   10.8564   -3.9342   26.1332 C   0  0  0  0  0  0  0  0  0  0  0  0
   10.7490   -5.1734   26.9717 Cl  0  0  0  0  0  0  0  0  0  0  0  0
   12.1336   -3.1476   26.1176 C   0  0  0  0  0  0  0  0  0  0  0  0
   12.2410   -1.9086   25.2791 C   0  0  0  0  0  0  0  0  0  0  0  0
   11.0714   -1.4561   24.4563 C   0  0  0  0  0  0  0  0  0  0  0  0
   11.1788   -0.2169   23.6178 C   0  0  0  0  0  0  0  0  0  0  0  0
   12.4559    0.5697   23.6021 O   0  0  0  0  0  0  0  0  0  0  0  0
    6.2932   -4.6993   24.7291 C   0  0  0  0  0  0  0  0  0  0  0  0
    6.6267   -6.0642   24.2039 C   0  0  0  0  0  0  0  0  0  0  0  0
    5.9540   -7.2747   24.7803 N   0  0  0  0  0  0  0  0  0  0  0  0
    4.9478   -7.1202   25.8820 C   0  0  0  0  0  0  0  0  0  0  0  0
    4.6143   -5.7553   26.4072 C   0  0  0  0  0  0  0  0  0  0  0  0
    3.6080   -5.6008   27.5089 C   0  0  0  0  0  0  0  0  0  0  0  0
    3.2746   -4.2359   28.0341 C   0  0  0  0  0  0  0  0  0  0  0  0
    3.9473   -3.0255   27.4576 C   0  0  0  0  0  0  0  0  0  0  0  0
    4.9535   -3.1799   26.3560 C   0  0  0  0  0  0  0  0  0  0  0  0
    5.2870   -4.5448   25.8308 C   0  0  0  0  0  0  0  0  0  0  0  0
   10.1165    1.4747   21.9564 C   0  0  0  0  0  0  0  0  0  0  0  0
   10.9943    5.2196   22.9339 C   0  0  0  0  0  0  0  0  0  0  0  0
   11.0717    3.8680   22.2880 N   0  0  0  0  0  0  0  0  0  0  0  0
   10.0391    2.8264   22.6023 C   0  0  0  0  0  0  0  0  0  0  0  0
    8.9291    3.1364   23.5624 O   0  0  0  0  0  0  0  0  0  0  0  0
   11.8002    3.6645   21.6579 H   0  0  0  0  0  0  0  0  0  0  0  0
    7.1891   -0.2904   21.9652 C   0  0  0  0  0  0  0  0  0  0  0  0
    6.0045    0.6135   22.1371 N   0  0  0  0  0  0  0  0  0  0  0  0
    5.7456    0.9200   23.0361 H   0  0  0  0  0  0  0  0  0  0  0  0
    5.2143    1.0504   20.9393 C   0  0  0  0  0  0  0  0  0  0  0  0
    5.4547    0.4059   19.6063 C   0  0  0  0  0  0  0  0  0  0  0  0
    4.6646    0.8428   18.4086 C   0  0  0  0  0  0  0  0  0  0  0  0
    3.6339    1.9243   18.5437 C   0  0  0  0  0  0  0  0  0  0  0  0
    3.3935    2.5688   19.8767 C   0  0  0  0  0  0  0  0  0  0  0  0
    4.1837    2.1318   21.0745 C   0  0  0  0  0  0  0  0  0  0  0  0
 29 30  1  0  0  0
 30 31  1  0  0  0
 31 32  2  0  0  0
 31 28  1  0  0  0
 28  1  1  0  0  0
  1  2  1  0  0  0
  3  2  1  0  0  0
  3  4  1  0  0  0
  4  5  2  0  0  0
  4  6  1  0  0  0
  6 18  1  0  0  0
 18 19  2  0  0  0
 19 20  1  0  0  0
 20 21  2  0  0  0
 21 22  1  0  0  0
 22 23  2  0  0  0
 23 24  1  0  0  0
 24 25  2  0  0  0
 25 26  1  0  0  0
 26 27  2  0  0  0
  6  7  1  0  0  0
  7  8  1  0  0  0
  8 34  1  0  0  0
 34 35  1  0  0  0
 35 37  1  0  0  0
 37 38  2  0  0  0
 38 39  1  0  0  0
 39 40  2  0  0  0
 40 41  1  0  0  0
 41 42  2  0  0  0
  3  9  1  0  0  0
  9 10  2  0  0  0
 10 11  1  0  0  0
 11 12  1  0  0  0
 11 13  2  0  0  0
 13 14  1  0  0  0
 14 15  2  0  0  0
 15 16  1  0  0  0
 16 17  2  0  0  0
 16  1  1  0  0  0
  8  3  1  0  0  0
 42 37  1  0  0  0
 15  9  1  0  0  0
 27 18  1  0  0  0
 27 22  1  0  0  0
 30 33  1  0  0  0
 35 36  1  0  0  0
M  END
> <minimizedAffinity>
-8.22623

> <CNNscore>
0.1748650670

> <CNNaffinity>
6.8205223083

> <CNN_VS>
1.1926710606

> <CNNaffinity_variance>
0.1408787072

$$$$



 42 47  0  0  0  0  0  0  0  0999 V2000
   10.6475    1.5200   22.8648 N   0  0  0  0  0  0  0  0  0  0  0  0
    9.2603    1.2271   23.3543 C   0  0  0  0  0  0  0  0  0  0  0  0
    9.0221    0.0801   24.2911 C   0  0  0  0  0  0  0  0  0  0  0  0
    8.6321   -1.0267   25.2254 C   0  0  0  0  0  0  0  0  0  0  0  0
    9.1354   -1.9437   25.8435 O   0  0  0  0  0  0  0  0  0  0  0  0
    7.1502   -0.9483   25.4440 N   0  0  0  0  0  0  0  0  0  0  0  0
    6.6242    0.2070   24.6448 C   0  0  0  0  0  0  0  0  0  0  0  0
    7.7811    0.8426   23.9323 C   0  0  0  0  0  0  0  0  0  0  0  0
   10.1712   -0.7740   24.7385 C   0  0  0  0  0  0  0  0  0  0  0  0
    9.9330   -1.9209   25.6753 C   0  0  0  0  0  0  0  0  0  0  0  0
   11.0821   -2.7750   26.1227 C   0  0  0  0  0  0  0  0  0  0  0  0
   10.8440   -3.9220   27.0596 Cl  0  0  0  0  0  0  0  0  0  0  0  0
   12.4694   -2.4820   25.6332 C   0  0  0  0  0  0  0  0  0  0  0  0
   12.7076   -1.3351   24.6963 C   0  0  0  0  0  0  0  0  0  0  0  0
   11.5585   -0.4810   24.2490 C   0  0  0  0  0  0  0  0  0  0  0  0
   11.7966    0.6660   23.3121 C   0  0  0  0  0  0  0  0  0  0  0  0
   13.1839    0.9589   22.8226 O   0  0  0  0  0  0  0  0  0  0  0  0
    6.3370   -1.8644   26.3097 C   0  0  0  0  0  0  0  0  0  0  0  0
    6.0920   -3.2807   25.8806 C   0  0  0  0  0  0  0  0  0  0  0  0
    5.2788   -4.1967   26.7463 N   0  0  0  0  0  0  0  0  0  0  0  0
    4.7107   -3.6965   28.0413 C   0  0  0  0  0  0  0  0  0  0  0  0
    4.9557   -2.2802   28.4705 C   0  0  0  0  0  0  0  0  0  0  0  0
    4.3874   -1.7800   29.7655 C   0  0  0  0  0  0  0  0  0  0  0  0
    4.6325   -0.3638   30.1946 C   0  0  0  0  0  0  0  0  0  0  0  0
    5.4456    0.5523   29.3288 C   0  0  0  0  0  0  0  0  0  0  0  0
    6.0138    0.0521   28.0339 C   0  0  0  0  0  0  0  0  0  0  0  0
    5.7688   -1.3642   27.6047 C   0  0  0  0  0  0  0  0  0  0  0  0
   10.8857    2.6670   21.9279 C   0  0  0  0  0  0  0  0  0  0  0  0
   10.7137    6.3405   23.4198 C   0  0  0  0  0  0  0  0  0  0  0  0
   10.2846    5.0083   22.8804 N   0  0  0  0  0  0  0  0  0  0  0  0
   11.3148    3.9993   22.4673 C   0  0  0  0  0  0  0  0  0  0  0  0
   12.7742    4.3226   22.5935 O   0  0  0  0  0  0  0  0  0  0  0  0
    9.3269    4.7961   22.7975 H   0  0  0  0  0  0  0  0  0  0  0  0
    7.7096    2.0319   23.0210 C   0  0  0  0  0  0  0  0  0  0  0  0
    6.4212    2.7849   22.8703 N   0  0  0  0  0  0  0  0  0  0  0  0
    5.5656    2.2982   22.8538 H   0  0  0  0  0  0  0  0  0  0  0  0
    6.4363    4.2796   22.7447 C   0  0  0  0  0  0  0  0  0  0  0  0
    5.9648    4.9306   21.4783 C   0  0  0  0  0  0  0  0  0  0  0  0
    5.9798    6.4252   21.3527 C   0  0  0  0  0  0  0  0  0  0  0  0
    6.4664    7.2689   22.4936 C   0  0  0  0  0  0  0  0  0  0  0  0
    6.9379    6.6179   23.7600 C   0  0  0  0  0  0  0  0  0  0  0  0
    6.9228    5.1232   23.8856 C   0  0  0  0  0  0  0  0  0  0  0  0
 29 30  1  0  0  0
 30 31  1  0  0  0
 31 32  2  0  0  0
 31 28  1  0  0  0
 28  1  1  0  0  0
  1  2  1  0  0  0
  3  2  1  0  0  0
  3  4  1  0  0  0
  4  5  2  0  0  0
  4  6  1  0  0  0
  6 18  1  0  0  0
 18 19  2  0  0  0
 19 20  1  0  0  0
 20 21  2  0  0  0
 21 22  1  0  0  0
 22 23  2  0  0  0
 23 24  1  0  0  0
 24 25  2  0  0  0
 25 26  1  0  0  0
 26 27  2  0  0  0
  6  7  1  0  0  0
  7  8  1  0  0  0
  8 34  1  0  0  0
 34 35  1  0  0  0
 35 37  1  0  0  0
 37 38  2  0  0  0
 38 39  1  0  0  0
 39 40  2  0  0  0
 40 41  1  0  0  0
 41 42  2  0  0  0
  3  9  1  0  0  0
  9 10  2  0  0  0
 10 11  1  0  0  0
 11 12  1  0  0  0
 11 13  2  0  0  0
 13 14  1  0  0  0
 14 15  2  0  0  0
 15 16  1  0  0  0
 16 17  2  0  0  0
 16  1  1  0  0  0
  8  3  1  0  0  0
 42 37  1  0  0  0
 15  9  1  0  0  0
 27 18  1  0  0  0
 27 22  1  0  0  0
 30 33  1  0  0  0
 35 36  1  0  0  0
M  END
> <minimizedAffinity>
-7.93846

> <CNNscore>
0.1722975820

> <CNNaffinity>
6.6732330322

> <CNN_VS>
1.1497819424

> <CNNaffinity_variance>
0.2792569697

$$$$



 42 47  0  0  0  0  0  0  0  0999 V2000
    8.4982    1.5925   23.3556 N   0  0  0  0  0  0  0  0  0  0  0  0
    8.3151    0.1693   23.7928 C   0  0  0  0  0  0  0  0  0  0  0  0
    7.4004   -0.1519   24.9373 C   0  0  0  0  0  0  0  0  0  0  0  0
    6.5238   -0.6238   26.0593 C   0  0  0  0  0  0  0  0  0  0  0  0
    5.7660   -0.1792   26.8986 O   0  0  0  0  0  0  0  0  0  0  0  0
    6.6434   -2.1166   26.1447 N   0  0  0  0  0  0  0  0  0  0  0  0
    7.5939   -2.5673   25.0755 C   0  0  0  0  0  0  0  0  0  0  0  0
    8.0618   -1.3531   24.3293 C   0  0  0  0  0  0  0  0  0  0  0  0
    6.6687    0.9501   25.6448 C   0  0  0  0  0  0  0  0  0  0  0  0
    5.7539    0.6288   26.7893 C   0  0  0  0  0  0  0  0  0  0  0  0
    5.0223    1.7307   27.4967 C   0  0  0  0  0  0  0  0  0  0  0  0
    4.1075    1.4095   28.6413 Cl  0  0  0  0  0  0  0  0  0  0  0  0
    5.2054    3.1539   27.0595 C   0  0  0  0  0  0  0  0  0  0  0  0
    6.1201    3.4751   25.9149 C   0  0  0  0  0  0  0  0  0  0  0  0
    6.8518    2.3732   25.2076 C   0  0  0  0  0  0  0  0  0  0  0  0
    7.7666    2.6944   24.0630 C   0  0  0  0  0  0  0  0  0  0  0  0
    7.9496    4.1176   23.6258 O   0  0  0  0  0  0  0  0  0  0  0  0
    5.9365   -3.0029   27.1269 C   0  0  0  0  0  0  0  0  0  0  0  0
    6.0909   -2.7635   28.5996 C   0  0  0  0  0  0  0  0  0  0  0  0
    5.3841   -3.6499   29.5817 N   0  0  0  0  0  0  0  0  0  0  0  0
    4.5228   -4.7757   29.0912 C   0  0  0  0  0  0  0  0  0  0  0  0
    4.3684   -5.0151   27.6185 C   0  0  0  0  0  0  0  0  0  0  0  0
    3.5070   -6.1411   27.1280 C   0  0  0  0  0  0  0  0  0  0  0  0
    3.3526   -6.3804   25.6552 C   0  0  0  0  0  0  0  0  0  0  0  0
    4.0595   -5.4940   24.6731 C   0  0  0  0  0  0  0  0  0  0  0  0
    4.9208   -4.3682   25.1636 C   0  0  0  0  0  0  0  0  0  0  0  0
    5.0752   -4.1288   26.6363 C   0  0  0  0  0  0  0  0  0  0  0  0
    9.4130    1.9137   22.2110 C   0  0  0  0  0  0  0  0  0  0  0  0
   12.0744    4.8514   22.4019 C   0  0  0  0  0  0  0  0  0  0  0  0
   10.7916    4.1151   22.1528 N   0  0  0  0  0  0  0  0  0  0  0  0
   10.6959    2.6500   22.4601 C   0  0  0  0  0  0  0  0  0  0  0  0
   11.8831    1.9213   23.0164 O   0  0  0  0  0  0  0  0  0  0  0  0
   10.0124    4.5934   21.7876 H   0  0  0  0  0  0  0  0  0  0  0  0
    9.0224   -1.3420   23.1773 C   0  0  0  0  0  0  0  0  0  0  0  0
   10.1219   -2.3599   23.1077 N   0  0  0  0  0  0  0  0  0  0  0  0
   10.1789   -2.9710   22.3380 H   0  0  0  0  0  0  0  0  0  0  0  0
   11.1346   -2.4467   24.2109 C   0  0  0  0  0  0  0  0  0  0  0  0
   10.9170   -3.3907   25.3561 C   0  0  0  0  0  0  0  0  0  0  0  0
   11.9296   -3.4775   26.4592 C   0  0  0  0  0  0  0  0  0  0  0  0
   13.1600   -2.6204   26.4172 C   0  0  0  0  0  0  0  0  0  0  0  0
   13.3775   -1.6764   25.2720 C   0  0  0  0  0  0  0  0  0  0  0  0
   12.3648   -1.5896   24.1688 C   0  0  0  0  0  0  0  0  0  0  0  0
 29 30  1  0  0  0
 30 31  1  0  0  0
 31 32  2  0  0  0
 31 28  1  0  0  0
 28  1  1  0  0  0
  1  2  1  0  0  0
  3  2  1  0  0  0
  3  4  1  0  0  0
  4  5  2  0  0  0
  4  6  1  0  0  0
  6 18  1  0  0  0
 18 19  2  0  0  0
 19 20  1  0  0  0
 20 21  2  0  0  0
 21 22  1  0  0  0
 22 23  2  0  0  0
 23 24  1  0  0  0
 24 25  2  0  0  0
 25 26  1  0  0  0
 26 27  2  0  0  0
  6  7  1  0  0  0
  7  8  1  0  0  0
  8 34  1  0  0  0
 34 35  1  0  0  0
 35 37  1  0  0  0
 37 38  2  0  0  0
 38 39  1  0  0  0
 39 40  2  0  0  0
 40 41  1  0  0  0
 41 42  2  0  0  0
  3  9  1  0  0  0
  9 10  2  0  0  0
 10 11  1  0  0  0
 11 12  1  0  0  0
 11 13  2  0  0  0
 13 14  1  0  0  0
 14 15  2  0  0  0
 15 16  1  0  0  0
 16 17  2  0  0  0
 16  1  1  0  0  0
  8  3  1  0  0  0
 42 37  1  0  0  0
 15  9  1  0  0  0
 27 18  1  0  0  0
 27 22  1  0  0  0
 30 33  1  0  0  0
 35 36  1  0  0  0
M  END
> <minimizedAffinity>
-7.71201

> <CNNscore>
0.1565010548

> <CNNaffinity>
6.6469817162

> <CNN_VS>
1.0402595997

> <CNNaffinity_variance>
0.1026844233

$$$$



 42 47  0  0  0  0  0  0  0  0999 V2000
    8.5030    4.4844   23.3417 N   0  0  0  0  0  0  0  0  0  0  0  0
    7.7198    3.2504   23.6792 C   0  0  0  0  0  0  0  0  0  0  0  0
    8.3868    1.9072   23.6494 C   0  0  0  0  0  0  0  0  0  0  0  0
    8.9153    0.5035   23.6623 C   0  0  0  0  0  0  0  0  0  0  0  0
    9.9473   -0.1045   23.4579 O   0  0  0  0  0  0  0  0  0  0  0  0
    7.7927   -0.4110   24.0542 N   0  0  0  0  0  0  0  0  0  0  0  0
    6.5704    0.4276   24.2836 C   0  0  0  0  0  0  0  0  0  0  0  0
    6.9375    1.8603   24.0334 C   0  0  0  0  0  0  0  0  0  0  0  0
    9.8370    1.7979   23.2820 C   0  0  0  0  0  0  0  0  0  0  0  0
   10.5040    0.4547   23.2521 C   0  0  0  0  0  0  0  0  0  0  0  0
   11.9542    0.3455   22.8847 C   0  0  0  0  0  0  0  0  0  0  0  0
   12.6212   -0.9978   22.8549 Cl  0  0  0  0  0  0  0  0  0  0  0  0
   12.7374    1.5795   22.5472 C   0  0  0  0  0  0  0  0  0  0  0  0
   12.0704    2.9226   22.5770 C   0  0  0  0  0  0  0  0  0  0  0  0
   10.6202    3.0319   22.9444 C   0  0  0  0  0  0  0  0  0  0  0  0
    9.9532    4.3751   22.9743 C   0  0  0  0  0  0  0  0  0  0  0  0
   10.7364    5.6091   22.6367 O   0  0  0  0  0  0  0  0  0  0  0  0
    7.8776   -1.9022   24.1925 C   0  0  0  0  0  0  0  0  0  0  0  0
    6.8580   -2.7766   23.5248 C   0  0  0  0  0  0  0  0  0  0  0  0
    6.9429   -4.2678   23.6631 N   0  0  0  0  0  0  0  0  0  0  0  0
    8.0474   -4.8845   24.4690 C   0  0  0  0  0  0  0  0  0  0  0  0
    9.0671   -4.0101   25.1367 C   0  0  0  0  0  0  0  0  0  0  0  0
   10.1717   -4.6270   25.9427 C   0  0  0  0  0  0  0  0  0  0  0  0
   11.1912   -3.7525   26.6103 C   0  0  0  0  0  0  0  0  0  0  0  0
   11.1063   -2.2613   26.4721 C   0  0  0  0  0  0  0  0  0  0  0  0
   10.0018   -1.6445   25.6661 C   0  0  0  0  0  0  0  0  0  0  0  0
    8.9822   -2.5189   24.9984 C   0  0  0  0  0  0  0  0  0  0  0  0
    7.8360    5.8276   23.3715 C   0  0  0  0  0  0  0  0  0  0  0  0
    8.3156    7.4685   26.9531 C   0  0  0  0  0  0  0  0  0  0  0  0
    8.6295    6.8161   25.6394 N   0  0  0  0  0  0  0  0  0  0  0  0
    7.5220    6.4800   24.6852 C   0  0  0  0  0  0  0  0  0  0  0  0
    6.1005    6.7964   25.0447 O   0  0  0  0  0  0  0  0  0  0  0  0
    9.5625    6.6085   25.4034 H   0  0  0  0  0  0  0  0  0  0  0  0
    6.0170    3.0391   24.1472 C   0  0  0  0  0  0  0  0  0  0  0  0
    4.5333    2.8449   24.0439 N   0  0  0  0  0  0  0  0  0  0  0  0
    3.9822    2.8201   24.8594 H   0  0  0  0  0  0  0  0  0  0  0  0
    3.8892    2.6884   22.6984 C   0  0  0  0  0  0  0  0  0  0  0  0
    4.6222    3.1162   21.4616 C   0  0  0  0  0  0  0  0  0  0  0  0
    3.9781    2.9597   20.1161 C   0  0  0  0  0  0  0  0  0  0  0  0
    2.6009    2.3753   20.0072 C   0  0  0  0  0  0  0  0  0  0  0  0
    1.8679    1.9474   21.2439 C   0  0  0  0  0  0  0  0  0  0  0  0
    2.5120    2.1039   22.5895 C   0  0  0  0  0  0  0  0  0  0  0  0
 29 30  1  0  0  0
 30 31  1  0  0  0
 31 32  2  0  0  0
 31 28  1  0  0  0
 28  1  1  0  0  0
  1  2  1  0  0  0
  3  2  1  0  0  0
  3  4  1  0  0  0
  4  5  2  0  0  0
  4  6  1  0  0  0
  6 18  1  0  0  0
 18 19  2  0  0  0
 19 20  1  0  0  0
 20 21  2  0  0  0
 21 22  1  0  0  0
 22 23  2  0  0  0
 23 24  1  0  0  0
 24 25  2  0  0  0
 25 26  1  0  0  0
 26 27  2  0  0  0
  6  7  1  0  0  0
  7  8  1  0  0  0
  8 34  1  0  0  0
 34 35  1  0  0  0
 35 37  1  0  0  0
 37 38  2  0  0  0
 38 39  1  0  0  0
 39 40  2  0  0  0
 40 41  1  0  0  0
 41 42  2  0  0  0
  3  9  1  0  0  0
  9 10  2  0  0  0
 10 11  1  0  0  0
 11 12  1  0  0  0
 11 13  2  0  0  0
 13 14  1  0  0  0
 14 15  2  0  0  0
 15 16  1  0  0  0
 16 17  2  0  0  0
 16  1  1  0  0  0
  8  3  1  0  0  0
 42 37  1  0  0  0
 15  9  1  0  0  0
 27 18  1  0  0  0
 27 22  1  0  0  0
 30 33  1  0  0  0
 35 36  1  0  0  0
M  END
> <minimizedAffinity>
-7.70186

> <CNNscore>
0.1455942690

> <CNNaffinity>
6.6566362381

> <CNN_VS>
0.9691680670

> <CNNaffinity_variance>
0.1686302125

$$$$



 42 47  0  0  0  0  0  0  0  0999 V2000
   10.5843    1.4539   22.8862 N   0  0  0  0  0  0  0  0  0  0  0  0
    9.1935    1.1224   23.3401 C   0  0  0  0  0  0  0  0  0  0  0  0
    8.9645   -0.0241   24.2797 C   0  0  0  0  0  0  0  0  0  0  0  0
    8.5827   -1.1352   25.2123 C   0  0  0  0  0  0  0  0  0  0  0  0
    9.0964   -2.0317   25.8517 O   0  0  0  0  0  0  0  0  0  0  0  0
    7.0936   -1.1005   25.3897 N   0  0  0  0  0  0  0  0  0  0  0  0
    6.5551    0.0321   24.5667 C   0  0  0  0  0  0  0  0  0  0  0  0
    7.7114    0.6973   23.8807 C   0  0  0  0  0  0  0  0  0  0  0  0
   10.1263   -0.8393   24.7656 C   0  0  0  0  0  0  0  0  0  0  0  0
    9.8972   -1.9858   25.7052 C   0  0  0  0  0  0  0  0  0  0  0  0
   11.0590   -2.8009   26.1910 C   0  0  0  0  0  0  0  0  0  0  0  0
   10.8300   -3.9475   27.1307 Cl  0  0  0  0  0  0  0  0  0  0  0  0
   12.4497   -2.4694   25.7371 C   0  0  0  0  0  0  0  0  0  0  0  0
   12.6787   -1.3229   24.7975 C   0  0  0  0  0  0  0  0  0  0  0  0
   11.5170   -0.5078   24.3117 C   0  0  0  0  0  0  0  0  0  0  0  0
   11.7460    0.6388   23.3720 C   0  0  0  0  0  0  0  0  0  0  0  0
   13.1367    0.9702   22.9181 O   0  0  0  0  0  0  0  0  0  0  0  0
    6.2850   -2.0343   26.2406 C   0  0  0  0  0  0  0  0  0  0  0  0
    6.0396   -3.4421   25.7845 C   0  0  0  0  0  0  0  0  0  0  0  0
    5.2310   -4.3760   26.6354 N   0  0  0  0  0  0  0  0  0  0  0  0
    4.6679   -3.9021   27.9424 C   0  0  0  0  0  0  0  0  0  0  0  0
    4.9133   -2.4943   28.3985 C   0  0  0  0  0  0  0  0  0  0  0  0
    4.3502   -2.0204   29.7056 C   0  0  0  0  0  0  0  0  0  0  0  0
    4.5957   -0.6126   30.1616 C   0  0  0  0  0  0  0  0  0  0  0  0
    5.4042    0.3212   29.3107 C   0  0  0  0  0  0  0  0  0  0  0  0
    5.9674   -0.1527   28.0037 C   0  0  0  0  0  0  0  0  0  0  0  0
    5.7219   -1.5604   27.5476 C   0  0  0  0  0  0  0  0  0  0  0  0
   10.8133    2.6005   21.9465 C   0  0  0  0  0  0  0  0  0  0  0  0
   10.6437    6.2807   23.4219 C   0  0  0  0  0  0  0  0  0  0  0  0
   10.2137    4.9470   22.8869 N   0  0  0  0  0  0  0  0  0  0  0  0
   11.2432    3.9342   22.4815 C   0  0  0  0  0  0  0  0  0  0  0  0
   12.7028    4.2552   22.6112 O   0  0  0  0  0  0  0  0  0  0  0  0
    9.2558    4.7363   22.8018 H   0  0  0  0  0  0  0  0  0  0  0  0
    7.6290    1.8769   22.9577 C   0  0  0  0  0  0  0  0  0  0  0  0
    6.3253    2.2286   22.3047 N   0  0  0  0  0  0  0  0  0  0  0  0
    5.7088    2.8580   22.7439 H   0  0  0  0  0  0  0  0  0  0  0  0
    5.9609    1.6213   20.9824 C   0  0  0  0  0  0  0  0  0  0  0  0
    6.8870    0.6402   20.3269 C   0  0  0  0  0  0  0  0  0  0  0  0
    6.5227    0.0329   19.0047 C   0  0  0  0  0  0  0  0  0  0  0  0
    5.2320    0.4066   18.3379 C   0  0  0  0  0  0  0  0  0  0  0  0
    4.3058    1.3877   18.9933 C   0  0  0  0  0  0  0  0  0  0  0  0
    4.6703    1.9950   20.3156 C   0  0  0  0  0  0  0  0  0  0  0  0
 29 30  1  0  0  0
 30 31  1  0  0  0
 31 32  2  0  0  0
 31 28  1  0  0  0
 28  1  1  0  0  0
  1  2  1  0  0  0
  3  2  1  0  0  0
  3  4  1  0  0  0
  4  5  2  0  0  0
  4  6  1  0  0  0
  6 18  1  0  0  0
 18 19  2  0  0  0
 19 20  1  0  0  0
 20 21  2  0  0  0
 21 22  1  0  0  0
 22 23  2  0  0  0
 23 24  1  0  0  0
 24 25  2  0  0  0
 25 26  1  0  0  0
 26 27  2  0  0  0
  6  7  1  0  0  0
  7  8  1  0  0  0
  8 34  1  0  0  0
 34 35  1  0  0  0
 35 37  1  0  0  0
 37 38  2  0  0  0
 38 39  1  0  0  0
 39 40  2  0  0  0
 40 41  1  0  0  0
 41 42  2  0  0  0
  3  9  1  0  0  0
  9 10  2  0  0  0
 10 11  1  0  0  0
 11 12  1  0  0  0
 11 13  2  0  0  0
 13 14  1  0  0  0
 14 15  2  0  0  0
 15 16  1  0  0  0
 16 17  2  0  0  0
 16  1  1  0  0  0
  8  3  1  0  0  0
 42 37  1  0  0  0
 15  9  1  0  0  0
 27 18  1  0  0  0
 27 22  1  0  0  0
 30 33  1  0  0  0
 35 36  1  0  0  0
M  END
> <minimizedAffinity>
-8.84381

> <CNNscore>
0.1439929903

> <CNNaffinity>
6.7097563744

> <CNN_VS>
0.9661579132

> <CNNaffinity_variance>
0.1978294551

$$$$
