


 42 47  0  0  0  0  0  0  0  0999 V2000
   -7.1542   -0.9840  -23.1718 N   0  0  0  0  0  0  0  0  0  0  0  0
   -7.5867    0.4422  -23.3421 C   0  0  0  0  0  0  0  0  0  0  0  0
   -9.0468    0.7839  -23.3780 C   0  0  0  0  0  0  0  0  0  0  0  0
  -10.4630    1.2753  -23.4322 C   0  0  0  0  0  0  0  0  0  0  0  0
  -11.5992    0.8482  -23.3767 O   0  0  0  0  0  0  0  0  0  0  0  0
  -10.4306    2.7642  -23.6117 N   0  0  0  0  0  0  0  0  0  0  0  0
   -8.9943    3.1930  -23.6685 C   0  0  0  0  0  0  0  0  0  0  0  0
   -8.1391    1.9691  -23.5241 C   0  0  0  0  0  0  0  0  0  0  0  0
  -10.0745   -0.3006  -23.2437 C   0  0  0  0  0  0  0  0  0  0  0  0
  -11.5345    0.0412  -23.2797 C   0  0  0  0  0  0  0  0  0  0  0  0
  -12.5621   -1.0433  -23.1454 C   0  0  0  0  0  0  0  0  0  0  0  0
  -14.0223   -0.7016  -23.1814 Cl  0  0  0  0  0  0  0  0  0  0  0  0
  -12.1296   -2.4694  -22.9751 C   0  0  0  0  0  0  0  0  0  0  0  0
  -10.6695   -2.8112  -22.9391 C   0  0  0  0  0  0  0  0  0  0  0  0
   -9.6419   -1.7267  -23.0734 C   0  0  0  0  0  0  0  0  0  0  0  0
   -8.1817   -2.0684  -23.0375 C   0  0  0  0  0  0  0  0  0  0  0  0
   -7.7492   -3.4946  -22.8672 O   0  0  0  0  0  0  0  0  0  0  0  0
  -11.6247    3.6659  -23.7161 C   0  0  0  0  0  0  0  0  0  0  0  0
  -12.5095    3.8798  -22.5239 C   0  0  0  0  0  0  0  0  0  0  0  0
  -13.7037    4.7815  -22.6282 N   0  0  0  0  0  0  0  0  0  0  0  0
  -14.0130    5.4693  -23.9249 C   0  0  0  0  0  0  0  0  0  0  0  0
  -13.1283    5.2553  -25.1171 C   0  0  0  0  0  0  0  0  0  0  0  0
  -13.4377    5.9431  -26.4138 C   0  0  0  0  0  0  0  0  0  0  0  0
  -12.5528    5.7291  -27.6060 C   0  0  0  0  0  0  0  0  0  0  0  0
  -11.3587    4.8274  -27.5016 C   0  0  0  0  0  0  0  0  0  0  0  0
  -11.0493    4.1397  -26.2049 C   0  0  0  0  0  0  0  0  0  0  0  0
  -11.9341    4.3536  -25.0127 C   0  0  0  0  0  0  0  0  0  0  0  0
   -5.6940   -1.3257  -23.1358 C   0  0  0  0  0  0  0  0  0  0  0  0
   -4.0775   -2.4329  -26.5870 C   0  0  0  0  0  0  0  0  0  0  0  0
   -4.8874   -2.4688  -25.3250 N   0  0  0  0  0  0  0  0  0  0  0  0
   -4.8841   -1.2897  -24.3978 C   0  0  0  0  0  0  0  0  0  0  0  0
   -4.0707   -0.0746  -24.7326 O   0  0  0  0  0  0  0  0  0  0  0  0
   -5.4213   -3.2663  -25.1052 H   0  0  0  0  0  0  0  0  0  0  0  0
   -6.6395    1.9363  -23.5254 C   0  0  0  0  0  0  0  0  0  0  0  0
   -5.8652    3.0049  -22.8125 N   0  0  0  0  0  0  0  0  0  0  0  0
   -6.0312    3.9533  -23.0182 H   0  0  0  0  0  0  0  0  0  0  0  0
   -4.8380    2.6288  -21.7862 C   0  0  0  0  0  0  0  0  0  0  0  0
   -5.0803    1.4621  -20.8751 C   0  0  0  0  0  0  0  0  0  0  0  0
   -4.0532    1.0860  -19.8488 C   0  0  0  0  0  0  0  0  0  0  0  0
   -2.7836    1.8765  -19.7335 C   0  0  0  0  0  0  0  0  0  0  0  0
   -2.5412    3.0432  -20.6446 C   0  0  0  0  0  0  0  0  0  0  0  0
   -3.5684    3.4193  -21.6709 C   0  0  0  0  0  0  0  0  0  0  0  0
 29 30  1  0  0  0
 30 31  1  0  0  0
 31 32  2  0  0  0
 31 28  1  0  0  0
 28  1  1  0  0  0
  1  2  1  0  0  0
  3  2  1  0  0  0
  3  4  1  0  0  0
  4  5  2  0  0  0
  4  6  1  0  0  0
  6 18  1  0  0  0
 18 19  2  0  0  0
 19 20  1  0  0  0
 20 21  2  0  0  0
 21 22  1  0  0  0
 22 23  2  0  0  0
 23 24  1  0  0  0
 24 25  2  0  0  0
 25 26  1  0  0  0
 26 27  2  0  0  0
  6  7  1  0  0  0
  7  8  1  0  0  0
  8 34  1  0  0  0
 34 35  1  0  0  0
 35 37  1  0  0  0
 37 38  2  0  0  0
 38 39  1  0  0  0
 39 40  2  0  0  0
 40 41  1  0  0  0
 41 42  2  0  0  0
  3  9  1  0  0  0
  9 10  2  0  0  0
 10 11  1  0  0  0
 11 12  1  0  0  0
 11 13  2  0  0  0
 13 14  1  0  0  0
 14 15  2  0  0  0
 15 16  1  0  0  0
 16 17  2  0  0  0
 16  1  1  0  0  0
  8  3  1  0  0  0
 42 37  1  0  0  0
 15  9  1  0  0  0
 27 18  1  0  0  0
 27 22  1  0  0  0
 30 33  1  0  0  0
 35 36  1  0  0  0
M  END
> <minimizedAffinity>
-8.04305

> <CNNscore>
0.7543553710

> <CNNaffinity>
6.9383287430

> <CNN_VS>
5.2339653969

> <CNNaffinity_variance>
0.0921286494

$$$$



 42 47  0  0  0  0  0  0  0  0999 V2000
   -7.2573   -1.9954  -23.2985 N   0  0  0  0  0  0  0  0  0  0  0  0
   -7.3182   -0.5932  -23.8279 C   0  0  0  0  0  0  0  0  0  0  0  0
   -8.6452    0.0800  -24.0172 C   0  0  0  0  0  0  0  0  0  0  0  0
   -9.8921    0.8782  -24.2579 C   0  0  0  0  0  0  0  0  0  0  0  0
  -11.0985    0.7731  -24.1576 O   0  0  0  0  0  0  0  0  0  0  0  0
   -9.4874    2.2217  -24.7882 N   0  0  0  0  0  0  0  0  0  0  0  0
   -7.9903    2.2538  -24.8753 C   0  0  0  0  0  0  0  0  0  0  0  0
   -7.4698    0.9302  -24.3987 C   0  0  0  0  0  0  0  0  0  0  0  0
   -9.9113   -0.6489  -23.6771 C   0  0  0  0  0  0  0  0  0  0  0  0
  -11.2383    0.0243  -23.8664 C   0  0  0  0  0  0  0  0  0  0  0  0
  -12.5044   -0.7046  -23.5263 C   0  0  0  0  0  0  0  0  0  0  0  0
  -13.8314   -0.0313  -23.7156 Cl  0  0  0  0  0  0  0  0  0  0  0  0
  -12.4435   -2.1067  -22.9969 C   0  0  0  0  0  0  0  0  0  0  0  0
  -11.1165   -2.7800  -22.8077 C   0  0  0  0  0  0  0  0  0  0  0  0
   -9.8505   -2.0511  -23.1477 C   0  0  0  0  0  0  0  0  0  0  0  0
   -8.5234   -2.7243  -22.9585 C   0  0  0  0  0  0  0  0  0  0  0  0
   -8.4625   -4.1265  -22.4291 O   0  0  0  0  0  0  0  0  0  0  0  0
  -10.4167    3.3372  -25.1653 C   0  0  0  0  0  0  0  0  0  0  0  0
  -10.2850    4.0033  -26.5028 C   0  0  0  0  0  0  0  0  0  0  0  0
  -11.2143    5.1188  -26.8799 N   0  0  0  0  0  0  0  0  0  0  0  0
  -12.2752    5.5681  -25.9194 C   0  0  0  0  0  0  0  0  0  0  0  0
  -12.4069    4.9020  -24.5819 C   0  0  0  0  0  0  0  0  0  0  0  0
  -13.4679    5.3514  -23.6214 C   0  0  0  0  0  0  0  0  0  0  0  0
  -13.5994    4.6852  -22.2839 C   0  0  0  0  0  0  0  0  0  0  0  0
  -12.6702    3.5697  -21.9068 C   0  0  0  0  0  0  0  0  0  0  0  0
  -11.6093    3.1204  -22.8673 C   0  0  0  0  0  0  0  0  0  0  0  0
  -11.4776    3.7865  -24.2048 C   0  0  0  0  0  0  0  0  0  0  0  0
   -5.9303   -2.6687  -23.1093 C   0  0  0  0  0  0  0  0  0  0  0  0
   -5.6662   -6.1600  -21.2410 C   0  0  0  0  0  0  0  0  0  0  0  0
   -5.8440   -5.1463  -22.3322 N   0  0  0  0  0  0  0  0  0  0  0  0
   -5.7525   -3.6824  -22.0181 C   0  0  0  0  0  0  0  0  0  0  0  0
   -5.4832   -3.2322  -20.6127 O   0  0  0  0  0  0  0  0  0  0  0  0
   -6.0207   -5.4417  -23.2545 H   0  0  0  0  0  0  0  0  0  0  0  0
   -6.0271    0.5275  -24.3180 C   0  0  0  0  0  0  0  0  0  0  0  0
   -4.9937    1.5234  -23.8820 N   0  0  0  0  0  0  0  0  0  0  0  0
   -4.6595    2.1964  -24.5181 H   0  0  0  0  0  0  0  0  0  0  0  0
   -4.4693    1.4939  -22.4770 C   0  0  0  0  0  0  0  0  0  0  0  0
   -3.1758    2.1769  -22.1447 C   0  0  0  0  0  0  0  0  0  0  0  0
   -2.6514    2.1474  -20.7398 C   0  0  0  0  0  0  0  0  0  0  0  0
   -3.4205    1.4349  -19.6669 C   0  0  0  0  0  0  0  0  0  0  0  0
   -4.7140    0.7518  -19.9992 C   0  0  0  0  0  0  0  0  0  0  0  0
   -5.2383    0.7813  -21.4042 C   0  0  0  0  0  0  0  0  0  0  0  0
 29 30  1  0  0  0
 30 31  1  0  0  0
 31 32  2  0  0  0
 31 28  1  0  0  0
 28  1  1  0  0  0
  1  2  1  0  0  0
  3  2  1  0  0  0
  3  4  1  0  0  0
  4  5  2  0  0  0
  4  6  1  0  0  0
  6 18  1  0  0  0
 18 19  2  0  0  0
 19 20  1  0  0  0
 20 21  2  0  0  0
 21 22  1  0  0  0
 22 23  2  0  0  0
 23 24  1  0  0  0
 24 25  2  0  0  0
 25 26  1  0  0  0
 26 27  2  0  0  0
  6  7  1  0  0  0
  7  8  1  0  0  0
  8 34  1  0  0  0
 34 35  1  0  0  0
 35 37  1  0  0  0
 37 38  2  0  0  0
 38 39  1  0  0  0
 39 40  2  0  0  0
 40 41  1  0  0  0
 41 42  2  0  0  0
  3  9  1  0  0  0
  9 10  2  0  0  0
 10 11  1  0  0  0
 11 12  1  0  0  0
 11 13  2  0  0  0
 13 14  1  0  0  0
 14 15  2  0  0  0
 15 16  1  0  0  0
 16 17  2  0  0  0
 16  1  1  0  0  0
  8  3  1  0  0  0
 42 37  1  0  0  0
 15  9  1  0  0  0
 27 18  1  0  0  0
 27 22  1  0  0  0
 30 33  1  0  0  0
 35 36  1  0  0  0
M  END
> <minimizedAffinity>
-7.44627

> <CNNscore>
0.4881339967

> <CNNaffinity>
6.9338455200

> <CNN_VS>
3.3846457005

> <CNNaffinity_variance>
0.1832067072

$$$$



 42 47  0  0  0  0  0  0  0  0999 V2000
   -6.8492   -0.9935  -22.4425 N   0  0  0  0  0  0  0  0  0  0  0  0
   -6.9660    0.2869  -23.2151 C   0  0  0  0  0  0  0  0  0  0  0  0
   -8.3004    0.7272  -23.7398 C   0  0  0  0  0  0  0  0  0  0  0  0
   -9.5611    1.2931  -24.3232 C   0  0  0  0  0  0  0  0  0  0  0  0
  -10.7452    1.0343  -24.4087 O   0  0  0  0  0  0  0  0  0  0  0  0
   -9.2168    2.5822  -25.0087 N   0  0  0  0  0  0  0  0  0  0  0  0
   -7.7433    2.8130  -24.8489 C   0  0  0  0  0  0  0  0  0  0  0  0
   -7.1770    1.6665  -24.0647 C   0  0  0  0  0  0  0  0  0  0  0  0
   -9.5182   -0.1129  -23.4919 C   0  0  0  0  0  0  0  0  0  0  0  0
  -10.8526    0.3275  -24.0166 C   0  0  0  0  0  0  0  0  0  0  0  0
  -12.0703   -0.5126  -23.7686 C   0  0  0  0  0  0  0  0  0  0  0  0
  -13.4048   -0.0722  -24.2934 Cl  0  0  0  0  0  0  0  0  0  0  0  0
  -11.9535   -1.7930  -22.9960 C   0  0  0  0  0  0  0  0  0  0  0  0
  -10.6191   -2.2333  -22.4713 C   0  0  0  0  0  0  0  0  0  0  0  0
   -9.4014   -1.3932  -22.7192 C   0  0  0  0  0  0  0  0  0  0  0  0
   -8.0669   -1.8336  -22.1945 C   0  0  0  0  0  0  0  0  0  0  0  0
   -7.9502   -3.1140  -21.4219 O   0  0  0  0  0  0  0  0  0  0  0  0
  -10.1774    3.4824  -25.7277 C   0  0  0  0  0  0  0  0  0  0  0  0
  -10.0473    3.6889  -27.2077 C   0  0  0  0  0  0  0  0  0  0  0  0
  -11.0079    4.5890  -27.9267 N   0  0  0  0  0  0  0  0  0  0  0  0
  -12.0985    5.2827  -27.1657 C   0  0  0  0  0  0  0  0  0  0  0  0
  -12.2286    5.0762  -25.6856 C   0  0  0  0  0  0  0  0  0  0  0  0
  -13.3194    5.7700  -24.9246 C   0  0  0  0  0  0  0  0  0  0  0  0
  -13.4494    5.5634  -23.4446 C   0  0  0  0  0  0  0  0  0  0  0  0
  -12.4888    4.6632  -22.7256 C   0  0  0  0  0  0  0  0  0  0  0  0
  -11.3982    3.9696  -23.4866 C   0  0  0  0  0  0  0  0  0  0  0  0
  -11.2681    4.1760  -24.9666 C   0  0  0  0  0  0  0  0  0  0  0  0
   -5.5147   -1.4338  -21.9178 C   0  0  0  0  0  0  0  0  0  0  0  0
   -4.9780   -0.1549  -18.1994 C   0  0  0  0  0  0  0  0  0  0  0  0
   -5.2382   -0.1490  -19.6767 N   0  0  0  0  0  0  0  0  0  0  0  0
   -5.2545   -1.4398  -20.4405 C   0  0  0  0  0  0  0  0  0  0  0  0
   -5.0106   -2.7366  -19.7271 O   0  0  0  0  0  0  0  0  0  0  0  0
   -5.3983    0.7022  -20.1449 H   0  0  0  0  0  0  0  0  0  0  0  0
   -5.7395    1.4904  -23.6740 C   0  0  0  0  0  0  0  0  0  0  0  0
   -4.9629    2.6516  -23.1279 N   0  0  0  0  0  0  0  0  0  0  0  0
   -4.0386    2.5221  -22.8147 H   0  0  0  0  0  0  0  0  0  0  0  0
   -5.5946    4.0104  -23.0590 C   0  0  0  0  0  0  0  0  0  0  0  0
   -5.1838    5.0785  -24.0287 C   0  0  0  0  0  0  0  0  0  0  0  0
   -5.8154    6.4372  -23.9598 C   0  0  0  0  0  0  0  0  0  0  0  0
   -6.8579    6.7280  -22.9211 C   0  0  0  0  0  0  0  0  0  0  0  0
   -7.2686    5.6599  -21.9514 C   0  0  0  0  0  0  0  0  0  0  0  0
   -6.6370    4.3011  -22.0203 C   0  0  0  0  0  0  0  0  0  0  0  0
 29 30  1  0  0  0
 30 31  1  0  0  0
 31 32  2  0  0  0
 31 28  1  0  0  0
 28  1  1  0  0  0
  1  2  1  0  0  0
  3  2  1  0  0  0
  3  4  1  0  0  0
  4  5  2  0  0  0
  4  6  1  0  0  0
  6 18  1  0  0  0
 18 19  2  0  0  0
 19 20  1  0  0  0
 20 21  2  0  0  0
 21 22  1  0  0  0
 22 23  2  0  0  0
 23 24  1  0  0  0
 24 25  2  0  0  0
 25 26  1  0  0  0
 26 27  2  0  0  0
  6  7  1  0  0  0
  7  8  1  0  0  0
  8 34  1  0  0  0
 34 35  1  0  0  0
 35 37  1  0  0  0
 37 38  2  0  0  0
 38 39  1  0  0  0
 39 40  2  0  0  0
 40 41  1  0  0  0
 41 42  2  0  0  0
  3  9  1  0  0  0
  9 10  2  0  0  0
 10 11  1  0  0  0
 11 12  1  0  0  0
 11 13  2  0  0  0
 13 14  1  0  0  0
 14 15  2  0  0  0
 15 16  1  0  0  0
 16 17  2  0  0  0
 16  1  1  0  0  0
  8  3  1  0  0  0
 42 37  1  0  0  0
 15  9  1  0  0  0
 27 18  1  0  0  0
 27 22  1  0  0  0
 30 33  1  0  0  0
 35 36  1  0  0  0
M  END
> <minimizedAffinity>
-7.51216

> <CNNscore>
0.4382274151

> <CNNaffinity>
6.6411361694

> <CNN_VS>
2.9103279114

> <CNNaffinity_variance>
0.0955398306

$$$$



 42 47  0  0  0  0  0  0  0  0999 V2000
   -5.4797   -6.1185  -23.5447 N   0  0  0  0  0  0  0  0  0  0  0  0
   -6.0628   -4.8529  -22.9894 C   0  0  0  0  0  0  0  0  0  0  0  0
   -7.1100   -4.1074  -23.7623 C   0  0  0  0  0  0  0  0  0  0  0  0
   -8.1587   -3.2581  -24.4172 C   0  0  0  0  0  0  0  0  0  0  0  0
   -8.8309   -3.2243  -25.4288 O   0  0  0  0  0  0  0  0  0  0  0  0
   -8.4435   -2.0947  -23.5143 N   0  0  0  0  0  0  0  0  0  0  0  0
   -7.5709   -2.2249  -22.3012 C   0  0  0  0  0  0  0  0  0  0  0  0
   -6.7467   -3.4688  -22.4545 C   0  0  0  0  0  0  0  0  0  0  0  0
   -7.5742   -4.6273  -25.0905 C   0  0  0  0  0  0  0  0  0  0  0  0
   -8.6215   -3.8818  -25.8634 C   0  0  0  0  0  0  0  0  0  0  0  0
   -9.0856   -4.4018  -27.1916 C   0  0  0  0  0  0  0  0  0  0  0  0
  -10.1329   -3.6562  -27.9645 Cl  0  0  0  0  0  0  0  0  0  0  0  0
   -8.5026   -5.6673  -27.7469 C   0  0  0  0  0  0  0  0  0  0  0  0
   -7.4554   -6.4129  -26.9740 C   0  0  0  0  0  0  0  0  0  0  0  0
   -6.9912   -5.8929  -25.6458 C   0  0  0  0  0  0  0  0  0  0  0  0
   -5.9439   -6.6385  -24.8729 C   0  0  0  0  0  0  0  0  0  0  0  0
   -5.3609   -7.9041  -25.4282 O   0  0  0  0  0  0  0  0  0  0  0  0
   -9.4282   -0.9943  -23.7781 C   0  0  0  0  0  0  0  0  0  0  0  0
   -8.9686    0.2894  -24.4034 C   0  0  0  0  0  0  0  0  0  0  0  0
   -9.9532    1.3898  -24.6672 N   0  0  0  0  0  0  0  0  0  0  0  0
  -11.3974    1.2066  -24.3057 C   0  0  0  0  0  0  0  0  0  0  0  0
  -11.8570   -0.0771  -23.6804 C   0  0  0  0  0  0  0  0  0  0  0  0
  -13.3012   -0.2604  -23.3189 C   0  0  0  0  0  0  0  0  0  0  0  0
  -13.7607   -1.5441  -22.6936 C   0  0  0  0  0  0  0  0  0  0  0  0
  -12.7761   -2.6445  -22.4298 C   0  0  0  0  0  0  0  0  0  0  0  0
  -11.3319   -2.4612  -22.7913 C   0  0  0  0  0  0  0  0  0  0  0  0
  -10.8723   -1.1775  -23.4166 C   0  0  0  0  0  0  0  0  0  0  0  0
   -4.4324   -6.8641  -22.7718 C   0  0  0  0  0  0  0  0  0  0  0  0
   -0.7826   -8.3018  -23.3732 C   0  0  0  0  0  0  0  0  0  0  0  0
   -2.1481   -8.1017  -22.7856 N   0  0  0  0  0  0  0  0  0  0  0  0
   -3.0669   -7.0642  -23.3594 C   0  0  0  0  0  0  0  0  0  0  0  0
   -2.6203   -6.2268  -24.5211 O   0  0  0  0  0  0  0  0  0  0  0  0
   -2.4413   -8.6513  -22.0232 H   0  0  0  0  0  0  0  0  0  0  0  0
   -5.7366   -3.9838  -21.4724 C   0  0  0  0  0  0  0  0  0  0  0  0
   -5.6577   -3.3905  -20.0970 N   0  0  0  0  0  0  0  0  0  0  0  0
   -5.8465   -3.9489  -19.3085 H   0  0  0  0  0  0  0  0  0  0  0  0
   -5.2909   -1.9465  -19.9229 C   0  0  0  0  0  0  0  0  0  0  0  0
   -5.6155   -1.2396  -18.6404 C   0  0  0  0  0  0  0  0  0  0  0  0
   -5.2488    0.2043  -18.4663 C   0  0  0  0  0  0  0  0  0  0  0  0
   -4.5575    0.9416  -19.5747 C   0  0  0  0  0  0  0  0  0  0  0  0
   -4.2328    0.2347  -20.8573 C   0  0  0  0  0  0  0  0  0  0  0  0
   -4.5996   -1.2094  -21.0313 C   0  0  0  0  0  0  0  0  0  0  0  0
 29 30  1  0  0  0
 30 31  1  0  0  0
 31 32  2  0  0  0
 31 28  1  0  0  0
 28  1  1  0  0  0
  1  2  1  0  0  0
  3  2  1  0  0  0
  3  4  1  0  0  0
  4  5  2  0  0  0
  4  6  1  0  0  0
  6 18  1  0  0  0
 18 19  2  0  0  0
 19 20  1  0  0  0
 20 21  2  0  0  0
 21 22  1  0  0  0
 22 23  2  0  0  0
 23 24  1  0  0  0
 24 25  2  0  0  0
 25 26  1  0  0  0
 26 27  2  0  0  0
  6  7  1  0  0  0
  7  8  1  0  0  0
  8 34  1  0  0  0
 34 35  1  0  0  0
 35 37  1  0  0  0
 37 38  2  0  0  0
 38 39  1  0  0  0
 39 40  2  0  0  0
 40 41  1  0  0  0
 41 42  2  0  0  0
  3  9  1  0  0  0
  9 10  2  0  0  0
 10 11  1  0  0  0
 11 12  1  0  0  0
 11 13  2  0  0  0
 13 14  1  0  0  0
 14 15  2  0  0  0
 15 16  1  0  0  0
 16 17  2  0  0  0
 16  1  1  0  0  0
  8  3  1  0  0  0
 42 37  1  0  0  0
 15  9  1  0  0  0
 27 18  1  0  0  0
 27 22  1  0  0  0
 30 33  1  0  0  0
 35 36  1  0  0  0
M  END
> <minimizedAffinity>
-8.10076

> <CNNscore>
0.3811262846

> <CNNaffinity>
6.8053627014

> <CNN_VS>
2.5937025547

> <CNNaffinity_variance>
0.0923743844

$$$$



 42 47  0  0  0  0  0  0  0  0999 V2000
   -8.0171    2.3400  -24.2206 N   0  0  0  0  0  0  0  0  0  0  0  0
   -7.2665    1.0434  -24.2934 C   0  0  0  0  0  0  0  0  0  0  0  0
   -7.9889   -0.2543  -24.0834 C   0  0  0  0  0  0  0  0  0  0  0  0
   -8.5731   -1.6231  -23.8961 C   0  0  0  0  0  0  0  0  0  0  0  0
   -9.6398   -2.1558  -23.6621 O   0  0  0  0  0  0  0  0  0  0  0  0
   -7.4675   -2.6245  -24.0532 N   0  0  0  0  0  0  0  0  0  0  0  0
   -6.1999   -1.8747  -24.3377 C   0  0  0  0  0  0  0  0  0  0  0  0
   -6.5221   -0.4098  -24.3564 C   0  0  0  0  0  0  0  0  0  0  0  0
   -9.4620   -0.2554  -23.8007 C   0  0  0  0  0  0  0  0  0  0  0  0
  -10.1844   -1.5531  -23.5907 C   0  0  0  0  0  0  0  0  0  0  0  0
  -11.6575   -1.5542  -23.3080 C   0  0  0  0  0  0  0  0  0  0  0  0
  -12.3800   -2.8519  -23.0980 Cl  0  0  0  0  0  0  0  0  0  0  0  0
  -12.4082   -0.2575  -23.2352 C   0  0  0  0  0  0  0  0  0  0  0  0
  -11.6858    1.0401  -23.4452 C   0  0  0  0  0  0  0  0  0  0  0  0
  -10.2127    1.0412  -23.7279 C   0  0  0  0  0  0  0  0  0  0  0  0
   -9.4902    2.3389  -23.9379 C   0  0  0  0  0  0  0  0  0  0  0  0
  -10.2409    3.6355  -23.8651 O   0  0  0  0  0  0  0  0  0  0  0  0
   -7.6053   -4.1143  -23.9448 C   0  0  0  0  0  0  0  0  0  0  0  0
   -7.0899   -4.8289  -22.7309 C   0  0  0  0  0  0  0  0  0  0  0  0
   -7.2277   -6.3186  -22.6225 N   0  0  0  0  0  0  0  0  0  0  0  0
   -7.8809   -7.0937  -23.7281 C   0  0  0  0  0  0  0  0  0  0  0  0
   -8.3963   -6.3791  -24.9421 C   0  0  0  0  0  0  0  0  0  0  0  0
   -9.0495   -7.1543  -26.0478 C   0  0  0  0  0  0  0  0  0  0  0  0
   -9.5649   -6.4396  -27.2618 C   0  0  0  0  0  0  0  0  0  0  0  0
   -9.4271   -4.9499  -27.3701 C   0  0  0  0  0  0  0  0  0  0  0  0
   -8.7739   -4.1748  -26.2645 C   0  0  0  0  0  0  0  0  0  0  0  0
   -8.2585   -4.8894  -25.0505 C   0  0  0  0  0  0  0  0  0  0  0  0
   -7.2946    3.6377  -24.4306 C   0  0  0  0  0  0  0  0  0  0  0  0
   -6.5080    6.7329  -22.0746 C   0  0  0  0  0  0  0  0  0  0  0  0
   -6.9701    5.9321  -23.2558 N   0  0  0  0  0  0  0  0  0  0  0  0
   -6.8326    4.4385  -23.2494 C   0  0  0  0  0  0  0  0  0  0  0  0
   -6.2329    3.7455  -22.0618 O   0  0  0  0  0  0  0  0  0  0  0  0
   -7.3636    6.3869  -24.0352 H   0  0  0  0  0  0  0  0  0  0  0  0
   -5.5485    0.7040  -24.6044 C   0  0  0  0  0  0  0  0  0  0  0  0
   -4.2037    0.6864  -23.9405 N   0  0  0  0  0  0  0  0  0  0  0  0
   -3.3884    0.5838  -24.4827 H   0  0  0  0  0  0  0  0  0  0  0  0
   -4.1009    0.8251  -22.4504 C   0  0  0  0  0  0  0  0  0  0  0  0
   -4.8086   -0.1491  -21.5559 C   0  0  0  0  0  0  0  0  0  0  0  0
   -4.7059   -0.0104  -20.0660 C   0  0  0  0  0  0  0  0  0  0  0  0
   -3.8954    1.1025  -19.4703 C   0  0  0  0  0  0  0  0  0  0  0  0
   -3.1877    2.0767  -20.3648 C   0  0  0  0  0  0  0  0  0  0  0  0
   -3.2905    1.9379  -21.8549 C   0  0  0  0  0  0  0  0  0  0  0  0
 29 30  1  0  0  0
 30 31  1  0  0  0
 31 32  2  0  0  0
 31 28  1  0  0  0
 28  1  1  0  0  0
  1  2  1  0  0  0
  3  2  1  0  0  0
  3  4  1  0  0  0
  4  5  2  0  0  0
  4  6  1  0  0  0
  6 18  1  0  0  0
 18 19  2  0  0  0
 19 20  1  0  0  0
 20 21  2  0  0  0
 21 22  1  0  0  0
 22 23  2  0  0  0
 23 24  1  0  0  0
 24 25  2  0  0  0
 25 26  1  0  0  0
 26 27  2  0  0  0
  6  7  1  0  0  0
  7  8  1  0  0  0
  8 34  1  0  0  0
 34 35  1  0  0  0
 35 37  1  0  0  0
 37 38  2  0  0  0
 38 39  1  0  0  0
 39 40  2  0  0  0
 40 41  1  0  0  0
 41 42  2  0  0  0
  3  9  1  0  0  0
  9 10  2  0  0  0
 10 11  1  0  0  0
 11 12  1  0  0  0
 11 13  2  0  0  0
 13 14  1  0  0  0
 14 15  2  0  0  0
 15 16  1  0  0  0
 16 17  2  0  0  0
 16  1  1  0  0  0
  8  3  1  0  0  0
 42 37  1  0  0  0
 15  9  1  0  0  0
 27 18  1  0  0  0
 27 22  1  0  0  0
 30 33  1  0  0  0
 35 36  1  0  0  0
M  END
> <minimizedAffinity>
-7.83259

> <CNNscore>
0.2821108103

> <CNNaffinity>
6.5877065659

> <CNN_VS>
1.8584632874

> <CNNaffinity_variance>
0.2841977477

$$$$



 42 47  0  0  0  0  0  0  0  0999 V2000
  -11.6044    3.8684  -23.9845 N   0  0  0  0  0  0  0  0  0  0  0  0
  -10.2228    3.2977  -23.8598 C   0  0  0  0  0  0  0  0  0  0  0  0
  -10.0373    1.8306  -23.6084 C   0  0  0  0  0  0  0  0  0  0  0  0
   -9.6971    0.3912  -23.3585 C   0  0  0  0  0  0  0  0  0  0  0  0
  -10.2465   -0.6792  -23.1891 O   0  0  0  0  0  0  0  0  0  0  0  0
   -8.2029    0.2701  -23.3074 N   0  0  0  0  0  0  0  0  0  0  0  0
   -7.6195    1.6346  -23.5257 C   0  0  0  0  0  0  0  0  0  0  0  0
   -8.7532    2.5991  -23.7118 C   0  0  0  0  0  0  0  0  0  0  0  0
  -11.2333    0.9342  -23.4817 C   0  0  0  0  0  0  0  0  0  0  0  0
  -11.0477   -0.5329  -23.2303 C   0  0  0  0  0  0  0  0  0  0  0  0
  -12.2437   -1.4293  -23.1035 C   0  0  0  0  0  0  0  0  0  0  0  0
  -12.0581   -2.8964  -22.8521 Cl  0  0  0  0  0  0  0  0  0  0  0  0
  -13.6253   -0.8586  -23.2282 C   0  0  0  0  0  0  0  0  0  0  0  0
  -13.8108    0.6085  -23.4796 C   0  0  0  0  0  0  0  0  0  0  0  0
  -12.6149    1.5049  -23.6064 C   0  0  0  0  0  0  0  0  0  0  0  0
  -12.8004    2.9720  -23.8578 C   0  0  0  0  0  0  0  0  0  0  0  0
  -14.1820    3.5427  -23.9825 O   0  0  0  0  0  0  0  0  0  0  0  0
   -7.4281   -0.9937  -23.0782 C   0  0  0  0  0  0  0  0  0  0  0  0
   -7.2163   -1.9588  -24.2068 C   0  0  0  0  0  0  0  0  0  0  0  0
   -6.4416   -3.2226  -23.9776 N   0  0  0  0  0  0  0  0  0  0  0  0
   -5.8785   -3.5212  -22.6198 C   0  0  0  0  0  0  0  0  0  0  0  0
   -6.0902   -2.5562  -21.4912 C   0  0  0  0  0  0  0  0  0  0  0  0
   -5.5271   -2.8549  -20.1333 C   0  0  0  0  0  0  0  0  0  0  0  0
   -5.7389   -1.8897  -19.0047 C   0  0  0  0  0  0  0  0  0  0  0  0
   -6.5137   -0.6260  -19.2339 C   0  0  0  0  0  0  0  0  0  0  0  0
   -7.0768   -0.3273  -20.5917 C   0  0  0  0  0  0  0  0  0  0  0  0
   -6.8650   -1.2924  -21.7204 C   0  0  0  0  0  0  0  0  0  0  0  0
  -11.7900    5.3355  -24.2359 C   0  0  0  0  0  0  0  0  0  0  0  0
  -13.9512    6.3658  -27.4010 C   0  0  0  0  0  0  0  0  0  0  0  0
  -13.5899    5.8798  -26.0287 N   0  0  0  0  0  0  0  0  0  0  0  0
  -12.1512    5.8214  -25.6083 C   0  0  0  0  0  0  0  0  0  0  0  0
  -11.0737    6.2489  -26.5603 O   0  0  0  0  0  0  0  0  0  0  0  0
  -14.2971    5.5992  -25.4038 H   0  0  0  0  0  0  0  0  0  0  0  0
   -8.6253    4.0732  -23.9579 C   0  0  0  0  0  0  0  0  0  0  0  0
   -7.9288    4.9436  -22.9544 N   0  0  0  0  0  0  0  0  0  0  0  0
   -8.4468    5.3888  -22.2454 H   0  0  0  0  0  0  0  0  0  0  0  0
   -6.4431    5.1356  -23.0309 C   0  0  0  0  0  0  0  0  0  0  0  0
   -5.5233    4.1216  -22.4179 C   0  0  0  0  0  0  0  0  0  0  0  0
   -4.0377    4.3136  -22.4945 C   0  0  0  0  0  0  0  0  0  0  0  0
   -3.4717    5.5196  -23.1840 C   0  0  0  0  0  0  0  0  0  0  0  0
   -4.3916    6.5336  -23.7970 C   0  0  0  0  0  0  0  0  0  0  0  0
   -5.8773    6.3415  -23.7204 C   0  0  0  0  0  0  0  0  0  0  0  0
 29 30  1  0  0  0
 30 31  1  0  0  0
 31 32  2  0  0  0
 31 28  1  0  0  0
 28  1  1  0  0  0
  1  2  1  0  0  0
  3  2  1  0  0  0
  3  4  1  0  0  0
  4  5  2  0  0  0
  4  6  1  0  0  0
  6 18  1  0  0  0
 18 19  2  0  0  0
 19 20  1  0  0  0
 20 21  2  0  0  0
 21 22  1  0  0  0
 22 23  2  0  0  0
 23 24  1  0  0  0
 24 25  2  0  0  0
 25 26  1  0  0  0
 26 27  2  0  0  0
  6  7  1  0  0  0
  7  8  1  0  0  0
  8 34  1  0  0  0
 34 35  1  0  0  0
 35 37  1  0  0  0
 37 38  2  0  0  0
 38 39  1  0  0  0
 39 40  2  0  0  0
 40 41  1  0  0  0
 41 42  2  0  0  0
  3  9  1  0  0  0
  9 10  2  0  0  0
 10 11  1  0  0  0
 11 12  1  0  0  0
 11 13  2  0  0  0
 13 14  1  0  0  0
 14 15  2  0  0  0
 15 16  1  0  0  0
 16 17  2  0  0  0
 16  1  1  0  0  0
  8  3  1  0  0  0
 42 37  1  0  0  0
 15  9  1  0  0  0
 27 18  1  0  0  0
 27 22  1  0  0  0
 30 33  1  0  0  0
 35 36  1  0  0  0
M  END
> <minimizedAffinity>
-8.01677

> <CNNscore>
0.2775573134

> <CNNaffinity>
6.6658759117

> <CNN_VS>
1.8501626253

> <CNNaffinity_variance>
0.2002724409

$$$$



 42 47  0  0  0  0  0  0  0  0999 V2000
   -7.0050   -3.1779  -22.4486 N   0  0  0  0  0  0  0  0  0  0  0  0
   -7.7770   -2.2545  -23.3438 C   0  0  0  0  0  0  0  0  0  0  0  0
   -7.4763   -0.7850  -23.3440 C   0  0  0  0  0  0  0  0  0  0  0  0
   -7.2885    0.6992  -23.4522 C   0  0  0  0  0  0  0  0  0  0  0  0
   -6.6042    1.5875  -22.9842 O   0  0  0  0  0  0  0  0  0  0  0  0
   -8.2678    1.2179  -24.4632 N   0  0  0  0  0  0  0  0  0  0  0  0
   -9.0607    0.0541  -24.9799 C   0  0  0  0  0  0  0  0  0  0  0  0
   -8.5715   -1.1837  -24.2881 C   0  0  0  0  0  0  0  0  0  0  0  0
   -6.4035   -0.2388  -22.4490 C   0  0  0  0  0  0  0  0  0  0  0  0
   -6.1028    1.2307  -22.4492 C   0  0  0  0  0  0  0  0  0  0  0  0
   -5.0301    1.7768  -21.5542 C   0  0  0  0  0  0  0  0  0  0  0  0
   -4.7293    3.2464  -21.5543 Cl  0  0  0  0  0  0  0  0  0  0  0  0
   -4.2581    0.8534  -20.6590 C   0  0  0  0  0  0  0  0  0  0  0  0
   -4.5588   -0.6162  -20.6588 C   0  0  0  0  0  0  0  0  0  0  0  0
   -5.6315   -1.1623  -21.5538 C   0  0  0  0  0  0  0  0  0  0  0  0
   -5.9323   -2.6318  -21.5536 C   0  0  0  0  0  0  0  0  0  0  0  0
   -5.1603   -3.5553  -20.6585 O   0  0  0  0  0  0  0  0  0  0  0  0
   -8.4262    2.6490  -24.8838 C   0  0  0  0  0  0  0  0  0  0  0  0
   -7.3402    3.3252  -25.6669 C   0  0  0  0  0  0  0  0  0  0  0  0
   -7.4986    4.7563  -26.0875 N   0  0  0  0  0  0  0  0  0  0  0  0
   -8.7430    5.5112  -25.7248 C   0  0  0  0  0  0  0  0  0  0  0  0
   -9.8291    4.8349  -24.9417 C   0  0  0  0  0  0  0  0  0  0  0  0
  -11.0736    5.5899  -24.5790 C   0  0  0  0  0  0  0  0  0  0  0  0
  -12.1595    4.9136  -23.7959 C   0  0  0  0  0  0  0  0  0  0  0  0
  -12.0011    3.4825  -23.3754 C   0  0  0  0  0  0  0  0  0  0  0  0
  -10.7566    2.7276  -23.7380 C   0  0  0  0  0  0  0  0  0  0  0  0
   -9.6706    3.4038  -24.5211 C   0  0  0  0  0  0  0  0  0  0  0  0
   -7.3058   -4.6475  -22.4485 C   0  0  0  0  0  0  0  0  0  0  0  0
   -4.1840   -6.9566  -23.2687 C   0  0  0  0  0  0  0  0  0  0  0  0
   -5.0928   -6.0051  -22.5486 N   0  0  0  0  0  0  0  0  0  0  0  0
   -6.3970   -5.5991  -23.1686 C   0  0  0  0  0  0  0  0  0  0  0  0
   -6.7923   -6.1448  -24.5088 O   0  0  0  0  0  0  0  0  0  0  0  0
   -4.8334   -5.6469  -21.6690 H   0  0  0  0  0  0  0  0  0  0  0  0
   -9.0872   -2.5758  -24.5029 C   0  0  0  0  0  0  0  0  0  0  0  0
  -10.1727   -3.1180  -23.6211 N   0  0  0  0  0  0  0  0  0  0  0  0
  -10.0547   -3.9863  -23.1724 H   0  0  0  0  0  0  0  0  0  0  0  0
  -11.4380   -2.3371  -23.4228 C   0  0  0  0  0  0  0  0  0  0  0  0
  -11.6548   -1.0570  -24.1739 C   0  0  0  0  0  0  0  0  0  0  0  0
  -12.9200   -0.2762  -23.9756 C   0  0  0  0  0  0  0  0  0  0  0  0
  -13.9686   -0.7755  -23.0262 C   0  0  0  0  0  0  0  0  0  0  0  0
  -13.7518   -2.0556  -22.2751 C   0  0  0  0  0  0  0  0  0  0  0  0
  -12.4865   -2.8365  -22.4734 C   0  0  0  0  0  0  0  0  0  0  0  0
 29 30  1  0  0  0
 30 31  1  0  0  0
 31 32  2  0  0  0
 31 28  1  0  0  0
 28  1  1  0  0  0
  1  2  1  0  0  0
  3  2  1  0  0  0
  3  4  1  0  0  0
  4  5  2  0  0  0
  4  6  1  0  0  0
  6 18  1  0  0  0
 18 19  2  0  0  0
 19 20  1  0  0  0
 20 21  2  0  0  0
 21 22  1  0  0  0
 22 23  2  0  0  0
 23 24  1  0  0  0
 24 25  2  0  0  0
 25 26  1  0  0  0
 26 27  2  0  0  0
  6  7  1  0  0  0
  7  8  1  0  0  0
  8 34  1  0  0  0
 34 35  1  0  0  0
 35 37  1  0  0  0
 37 38  2  0  0  0
 38 39  1  0  0  0
 39 40  2  0  0  0
 40 41  1  0  0  0
 41 42  2  0  0  0
  3  9  1  0  0  0
  9 10  2  0  0  0
 10 11  1  0  0  0
 11 12  1  0  0  0
 11 13  2  0  0  0
 13 14  1  0  0  0
 14 15  2  0  0  0
 15 16  1  0  0  0
 16 17  2  0  0  0
 16  1  1  0  0  0
  8  3  1  0  0  0
 42 37  1  0  0  0
 15  9  1  0  0  0
 27 18  1  0  0  0
 27 22  1  0  0  0
 30 33  1  0  0  0
 35 36  1  0  0  0
M  END
> <minimizedAffinity>
-7.58065

> <CNNscore>
0.2630493343

> <CNNaffinity>
6.6971282959

> <CNN_VS>
1.7616751194

> <CNNaffinity_variance>
0.1814451367

$$$$



 42 47  0  0  0  0  0  0  0  0999 V2000
   -6.5606   -0.4536  -22.3878 N   0  0  0  0  0  0  0  0  0  0  0  0
   -6.8121    0.8462  -23.0930 C   0  0  0  0  0  0  0  0  0  0  0  0
   -8.1811    1.1618  -23.6183 C   0  0  0  0  0  0  0  0  0  0  0  0
   -9.4905    1.6136  -24.1941 C   0  0  0  0  0  0  0  0  0  0  0  0
  -10.6364    1.2283  -24.3154 O   0  0  0  0  0  0  0  0  0  0  0  0
   -9.2860    2.9690  -24.8033 N   0  0  0  0  0  0  0  0  0  0  0  0
   -7.8503    3.3550  -24.6039 C   0  0  0  0  0  0  0  0  0  0  0  0
   -7.1675    2.2381  -23.8716 C   0  0  0  0  0  0  0  0  0  0  0  0
   -9.2988    0.1777  -23.4384 C   0  0  0  0  0  0  0  0  0  0  0  0
  -10.6679    0.4933  -23.9636 C   0  0  0  0  0  0  0  0  0  0  0  0
  -11.7855   -0.4909  -23.7837 C   0  0  0  0  0  0  0  0  0  0  0  0
  -13.1546   -0.1753  -24.3089 Cl  0  0  0  0  0  0  0  0  0  0  0  0
  -11.5340   -1.7906  -23.0784 C   0  0  0  0  0  0  0  0  0  0  0  0
  -10.1649   -2.1062  -22.5531 C   0  0  0  0  0  0  0  0  0  0  0  0
   -9.0473   -1.1221  -22.7331 C   0  0  0  0  0  0  0  0  0  0  0  0
   -7.6781   -1.4377  -22.2078 C   0  0  0  0  0  0  0  0  0  0  0  0
   -7.4266   -2.7375  -21.5026 O   0  0  0  0  0  0  0  0  0  0  0  0
  -10.3334    3.7936  -25.4910 C   0  0  0  0  0  0  0  0  0  0  0  0
  -10.2612    4.0136  -26.9731 C   0  0  0  0  0  0  0  0  0  0  0  0
  -11.3086    4.8382  -27.6608 N   0  0  0  0  0  0  0  0  0  0  0  0
  -12.4281    5.4429  -26.8665 C   0  0  0  0  0  0  0  0  0  0  0  0
  -12.5003    5.2229  -25.3844 C   0  0  0  0  0  0  0  0  0  0  0  0
  -13.6200    5.8276  -24.5901 C   0  0  0  0  0  0  0  0  0  0  0  0
  -13.6921    5.6076  -23.1081 C   0  0  0  0  0  0  0  0  0  0  0  0
  -12.6447    4.7830  -22.4203 C   0  0  0  0  0  0  0  0  0  0  0  0
  -11.5251    4.1783  -23.2146 C   0  0  0  0  0  0  0  0  0  0  0  0
  -11.4529    4.3983  -24.6967 C   0  0  0  0  0  0  0  0  0  0  0  0
   -5.1914   -0.7691  -21.8625 C   0  0  0  0  0  0  0  0  0  0  0  0
   -5.0976    0.0172  -17.9737 C   0  0  0  0  0  0  0  0  0  0  0  0
   -5.5375   -0.5316  -19.2986 N   0  0  0  0  0  0  0  0  0  0  0  0
   -4.7515   -0.2203  -20.5376 C   0  0  0  0  0  0  0  0  0  0  0  0
   -3.5256    0.6398  -20.4518 O   0  0  0  0  0  0  0  0  0  0  0  0
   -6.3421   -1.0961  -19.3549 H   0  0  0  0  0  0  0  0  0  0  0  0
   -5.7243    2.2036  -23.4640 C   0  0  0  0  0  0  0  0  0  0  0  0
   -5.2794    2.9117  -22.2189 N   0  0  0  0  0  0  0  0  0  0  0  0
   -5.5771    2.5909  -21.3371 H   0  0  0  0  0  0  0  0  0  0  0  0
   -4.3808    4.1088  -22.3173 C   0  0  0  0  0  0  0  0  0  0  0  0
   -4.8953    5.3859  -22.9125 C   0  0  0  0  0  0  0  0  0  0  0  0
   -3.9969    6.5829  -23.0108 C   0  0  0  0  0  0  0  0  0  0  0  0
   -2.5837    6.5029  -22.5139 C   0  0  0  0  0  0  0  0  0  0  0  0
   -2.0692    5.2258  -21.9187 C   0  0  0  0  0  0  0  0  0  0  0  0
   -2.9678    4.0287  -21.8204 C   0  0  0  0  0  0  0  0  0  0  0  0
 29 30  1  0  0  0
 30 31  1  0  0  0
 31 32  2  0  0  0
 31 28  1  0  0  0
 28  1  1  0  0  0
  1  2  1  0  0  0
  3  2  1  0  0  0
  3  4  1  0  0  0
  4  5  2  0  0  0
  4  6  1  0  0  0
  6 18  1  0  0  0
 18 19  2  0  0  0
 19 20  1  0  0  0
 20 21  2  0  0  0
 21 22  1  0  0  0
 22 23  2  0  0  0
 23 24  1  0  0  0
 24 25  2  0  0  0
 25 26  1  0  0  0
 26 27  2  0  0  0
  6  7  1  0  0  0
  7  8  1  0  0  0
  8 34  1  0  0  0
 34 35  1  0  0  0
 35 37  1  0  0  0
 37 38  2  0  0  0
 38 39  1  0  0  0
 39 40  2  0  0  0
 40 41  1  0  0  0
 41 42  2  0  0  0
  3  9  1  0  0  0
  9 10  2  0  0  0
 10 11  1  0  0  0
 11 12  1  0  0  0
 11 13  2  0  0  0
 13 14  1  0  0  0
 14 15  2  0  0  0
 15 16  1  0  0  0
 16 17  2  0  0  0
 16  1  1  0  0  0
  8  3  1  0  0  0
 42 37  1  0  0  0
 15  9  1  0  0  0
 27 18  1  0  0  0
 27 22  1  0  0  0
 30 33  1  0  0  0
 35 36  1  0  0  0
M  END
> <minimizedAffinity>
-7.69834

> <CNNscore>
0.2294247150

> <CNNaffinity>
6.2995443344

> <CNN_VS>
1.4452711344

> <CNNaffinity_variance>
0.2217382640

$$$$



 42 47  0  0  0  0  0  0  0  0999 V2000
   -9.1368    2.6815  -24.5550 N   0  0  0  0  0  0  0  0  0  0  0  0
   -8.2116    1.5025  -24.6177 C   0  0  0  0  0  0  0  0  0  0  0  0
   -8.7233    0.1297  -24.2961 C   0  0  0  0  0  0  0  0  0  0  0  0
   -9.0897   -1.2951  -24.0033 C   0  0  0  0  0  0  0  0  0  0  0  0
  -10.0511   -1.9594  -23.6704 O   0  0  0  0  0  0  0  0  0  0  0  0
   -7.8622   -2.1370  -24.1889 N   0  0  0  0  0  0  0  0  0  0  0  0
   -6.7371   -1.2325  -24.5965 C   0  0  0  0  0  0  0  0  0  0  0  0
   -7.2694    0.1683  -24.6627 C   0  0  0  0  0  0  0  0  0  0  0  0
  -10.1603   -0.0642  -23.9118 C   0  0  0  0  0  0  0  0  0  0  0  0
  -10.6721   -1.4370  -23.5902 C   0  0  0  0  0  0  0  0  0  0  0  0
  -12.1090   -1.6307  -23.2059 C   0  0  0  0  0  0  0  0  0  0  0  0
  -12.6208   -3.0036  -22.8843 Cl  0  0  0  0  0  0  0  0  0  0  0  0
  -13.0341   -0.4517  -23.1432 C   0  0  0  0  0  0  0  0  0  0  0  0
  -12.5224    0.9211  -23.4648 C   0  0  0  0  0  0  0  0  0  0  0  0
  -11.0855    1.1149  -23.8491 C   0  0  0  0  0  0  0  0  0  0  0  0
  -10.5737    2.4878  -24.1707 C   0  0  0  0  0  0  0  0  0  0  0  0
  -11.4988    3.6668  -24.1080 O   0  0  0  0  0  0  0  0  0  0  0  0
   -7.7751   -3.6225  -24.0001 C   0  0  0  0  0  0  0  0  0  0  0  0
   -7.1360   -4.1854  -22.7653 C   0  0  0  0  0  0  0  0  0  0  0  0
   -7.0488   -5.6709  -22.5765 N   0  0  0  0  0  0  0  0  0  0  0  0
   -7.6008   -6.5935  -23.6225 C   0  0  0  0  0  0  0  0  0  0  0  0
   -8.2400   -6.0306  -24.8573 C   0  0  0  0  0  0  0  0  0  0  0  0
   -8.7920   -6.9533  -25.9033 C   0  0  0  0  0  0  0  0  0  0  0  0
   -9.4311   -6.3903  -27.1380 C   0  0  0  0  0  0  0  0  0  0  0  0
   -9.5182   -4.9048  -27.3268 C   0  0  0  0  0  0  0  0  0  0  0  0
   -8.9662   -3.9822  -26.2808 C   0  0  0  0  0  0  0  0  0  0  0  0
   -8.3271   -4.5451  -25.0461 C   0  0  0  0  0  0  0  0  0  0  0  0
   -8.6249    4.0544  -24.8766 C   0  0  0  0  0  0  0  0  0  0  0  0
   -6.5028    5.9291  -22.0960 C   0  0  0  0  0  0  0  0  0  0  0  0
   -6.8690    4.9867  -23.2040 N   0  0  0  0  0  0  0  0  0  0  0  0
   -8.2586    4.9968  -23.7686 C   0  0  0  0  0  0  0  0  0  0  0  0
   -9.2821    5.9495  -23.2252 O   0  0  0  0  0  0  0  0  0  0  0  0
   -6.1974    4.3615  -23.5606 H   0  0  0  0  0  0  0  0  0  0  0  0
   -6.4852    1.3929  -25.0310 C   0  0  0  0  0  0  0  0  0  0  0  0
   -4.9977    1.4165  -24.8401 N   0  0  0  0  0  0  0  0  0  0  0  0
   -4.4008    1.4145  -25.6230 H   0  0  0  0  0  0  0  0  0  0  0  0
   -4.4193    1.4431  -23.4563 C   0  0  0  0  0  0  0  0  0  0  0  0
   -2.9803    1.0806  -23.2377 C   0  0  0  0  0  0  0  0  0  0  0  0
   -2.4020    1.1073  -21.8540 C   0  0  0  0  0  0  0  0  0  0  0  0
   -3.2627    1.4965  -20.6887 C   0  0  0  0  0  0  0  0  0  0  0  0
   -4.7017    1.8590  -20.9073 C   0  0  0  0  0  0  0  0  0  0  0  0
   -5.2800    1.8323  -22.2911 C   0  0  0  0  0  0  0  0  0  0  0  0
 29 30  1  0  0  0
 30 31  1  0  0  0
 31 32  2  0  0  0
 31 28  1  0  0  0
 28  1  1  0  0  0
  1  2  1  0  0  0
  3  2  1  0  0  0
  3  4  1  0  0  0
  4  5  2  0  0  0
  4  6  1  0  0  0
  6 18  1  0  0  0
 18 19  2  0  0  0
 19 20  1  0  0  0
 20 21  2  0  0  0
 21 22  1  0  0  0
 22 23  2  0  0  0
 23 24  1  0  0  0
 24 25  2  0  0  0
 25 26  1  0  0  0
 26 27  2  0  0  0
  6  7  1  0  0  0
  7  8  1  0  0  0
  8 34  1  0  0  0
 34 35  1  0  0  0
 35 37  1  0  0  0
 37 38  2  0  0  0
 38 39  1  0  0  0
 39 40  2  0  0  0
 40 41  1  0  0  0
 41 42  2  0  0  0
  3  9  1  0  0  0
  9 10  2  0  0  0
 10 11  1  0  0  0
 11 12  1  0  0  0
 11 13  2  0  0  0
 13 14  1  0  0  0
 14 15  2  0  0  0
 15 16  1  0  0  0
 16 17  2  0  0  0
 16  1  1  0  0  0
  8  3  1  0  0  0
 42 37  1  0  0  0
 15  9  1  0  0  0
 27 18  1  0  0  0
 27 22  1  0  0  0
 30 33  1  0  0  0
 35 36  1  0  0  0
M  END
> <minimizedAffinity>
-7.60639

> <CNNscore>
0.2195487916

> <CNNaffinity>
6.4973297119

> <CNN_VS>
1.4264808893

> <CNNaffinity_variance>
0.1926354468

$$$$
