


 21 23  0  0  0  0  0  0  0  0999 V2000
    8.9863   -2.6974   23.2110 C   0  0  0  0  0  0  0  0  0  0  0  0
    5.6934   -3.0243   29.2522 C   0  0  0  0  0  0  0  0  0  0  0  0
    5.8816   -2.5991   27.8262 C   0  0  0  0  0  0  0  0  0  0  0  0
    4.7928   -1.7406   27.2539 C   0  0  0  0  0  0  0  0  0  0  0  0
    4.6873   -1.1596   25.8750 C   0  0  0  0  0  0  0  0  0  0  0  0
    5.6444   -1.2936   24.7278 C   0  0  0  0  0  0  0  0  0  0  0  0
    6.9435   -2.0417   24.6763 N   0  0  0  0  0  0  0  0  0  0  0  0
    7.6768   -1.9832   23.3690 C   0  0  0  0  0  0  0  0  0  0  0  0
    7.1004   -1.2104   22.2197 O   0  0  0  0  0  0  0  0  0  0  0  0
    7.6063   -2.8405   25.7590 C   0  0  0  0  0  0  0  0  0  0  0  0
    7.1337   -3.0886   27.1609 C   0  0  0  0  0  0  0  0  0  0  0  0
   10.2737   -1.9342   23.3114 C   0  0  0  0  0  0  0  0  0  0  0  0
   10.5825   -0.8506   22.3212 C   0  0  0  0  0  0  0  0  0  0  0  0
   11.8699   -0.0874   22.4216 N   0  0  0  0  0  0  0  0  0  0  0  0
   12.8486   -0.4078   23.5123 C   0  0  0  0  0  0  0  0  0  0  0  0
   12.5399   -1.4915   24.5025 C   0  0  0  0  0  0  0  0  0  0  0  0
   13.5185   -1.8119   25.5931 C   0  0  0  0  0  0  0  0  0  0  0  0
   13.2098   -2.8954   26.5833 C   0  0  0  0  0  0  0  0  0  0  0  0
   11.9223   -3.6586   26.4829 C   0  0  0  0  0  0  0  0  0  0  0  0
   10.9437   -3.3382   25.3923 C   0  0  0  0  0  0  0  0  0  0  0  0
   11.2524   -2.2546   24.4021 C   0  0  0  0  0  0  0  0  0  0  0  0
  3  2  1  0  0  0
  3  4  1  0  0  0
  4  5  2  0  0  0
  5  6  1  0  0  0
  6  7  1  0  0  0
  7  8  1  0  0  0
  8  9  2  0  0  0
  8  1  1  0  0  0
  1 12  1  0  0  0
 12 13  2  0  0  0
 13 14  1  0  0  0
 14 15  2  0  0  0
 15 16  1  0  0  0
 16 17  2  0  0  0
 17 18  1  0  0  0
 18 19  2  0  0  0
 19 20  1  0  0  0
 20 21  2  0  0  0
  7 10  1  0  0  0
 10 11  1  0  0  0
 11  3  1  0  0  0
 21 12  1  0  0  0
 21 16  1  0  0  0
M  END
> <minimizedAffinity>
-6.56466

> <CNNscore>
0.7685556412

> <CNNaffinity>
5.6608490944

> <CNN_VS>
4.3506774902

> <CNNaffinity_variance>
0.0820709541

$$$$



 21 23  0  0  0  0  0  0  0  0999 V2000
    7.6611    0.1996   21.1360 C   0  0  0  0  0  0  0  0  0  0  0  0
   13.1409   -1.4395   24.9742 C   0  0  0  0  0  0  0  0  0  0  0  0
   11.7519   -1.6204   24.4378 C   0  0  0  0  0  0  0  0  0  0  0  0
   11.0057   -2.8154   24.9530 C   0  0  0  0  0  0  0  0  0  0  0  0
    9.6160   -3.2674   24.6146 C   0  0  0  0  0  0  0  0  0  0  0  0
    8.6293   -2.6363   23.6776 C   0  0  0  0  0  0  0  0  0  0  0  0
    8.7885   -1.3972   22.8475 N   0  0  0  0  0  0  0  0  0  0  0  0
    7.6061   -1.0225   22.0040 C   0  0  0  0  0  0  0  0  0  0  0  0
    6.3687   -1.8701   22.0284 O   0  0  0  0  0  0  0  0  0  0  0  0
    9.9738   -0.4832   22.7493 C   0  0  0  0  0  0  0  0  0  0  0  0
   11.2926   -0.5825   23.4570 C   0  0  0  0  0  0  0  0  0  0  0  0
    6.6467    0.3931   20.0481 C   0  0  0  0  0  0  0  0  0  0  0  0
    6.7444   -0.4038   18.7811 C   0  0  0  0  0  0  0  0  0  0  0  0
    5.7300   -0.2103   17.6932 N   0  0  0  0  0  0  0  0  0  0  0  0
    4.6179    0.7802   17.8722 C   0  0  0  0  0  0  0  0  0  0  0  0
    4.5202    1.5772   19.1393 C   0  0  0  0  0  0  0  0  0  0  0  0
    3.4081    2.5677   19.3183 C   0  0  0  0  0  0  0  0  0  0  0  0
    3.3103    3.3647   20.5853 C   0  0  0  0  0  0  0  0  0  0  0  0
    4.3247    3.1711   21.6732 C   0  0  0  0  0  0  0  0  0  0  0  0
    5.4368    2.1807   21.4942 C   0  0  0  0  0  0  0  0  0  0  0  0
    5.5345    1.3837   20.2272 C   0  0  0  0  0  0  0  0  0  0  0  0
  3  2  1  0  0  0
  3  4  1  0  0  0
  4  5  2  0  0  0
  5  6  1  0  0  0
  6  7  1  0  0  0
  7  8  1  0  0  0
  8  9  2  0  0  0
  8  1  1  0  0  0
  1 12  1  0  0  0
 12 13  2  0  0  0
 13 14  1  0  0  0
 14 15  2  0  0  0
 15 16  1  0  0  0
 16 17  2  0  0  0
 17 18  1  0  0  0
 18 19  2  0  0  0
 19 20  1  0  0  0
 20 21  2  0  0  0
  7 10  1  0  0  0
 10 11  1  0  0  0
 11  3  1  0  0  0
 21 12  1  0  0  0
 21 16  1  0  0  0
M  END
> <minimizedAffinity>
-7.27273

> <CNNscore>
0.7268875837

> <CNNaffinity>
5.4530668259

> <CNN_VS>
3.9637665749

> <CNNaffinity_variance>
0.0534575284

$$$$



 21 23  0  0  0  0  0  0  0  0999 V2000
   10.6639   -1.8391   22.7800 C   0  0  0  0  0  0  0  0  0  0  0  0
   12.1359    4.8887   22.6537 C   0  0  0  0  0  0  0  0  0  0  0  0
   11.2337    3.6947   22.7549 C   0  0  0  0  0  0  0  0  0  0  0  0
    9.7752    3.9945   22.9367 C   0  0  0  0  0  0  0  0  0  0  0  0
    8.6321    3.0324   23.0694 C   0  0  0  0  0  0  0  0  0  0  0  0
    8.6651    1.5328   23.0531 C   0  0  0  0  0  0  0  0  0  0  0  0
    9.8494    0.6250   22.9002 N   0  0  0  0  0  0  0  0  0  0  0  0
    9.5504   -0.8446   22.9250 C   0  0  0  0  0  0  0  0  0  0  0  0
    8.1377   -1.3198   23.0948 O   0  0  0  0  0  0  0  0  0  0  0  0
   11.2931    0.9926   22.7257 C   0  0  0  0  0  0  0  0  0  0  0  0
   11.9092    2.3587   22.6611 C   0  0  0  0  0  0  0  0  0  0  0  0
   11.5054   -2.2013   23.9678 C   0  0  0  0  0  0  0  0  0  0  0  0
   12.9823   -1.9400   23.9483 C   0  0  0  0  0  0  0  0  0  0  0  0
   13.8238   -2.3022   25.1360 N   0  0  0  0  0  0  0  0  0  0  0  0
   13.1883   -2.9256   26.3433 C   0  0  0  0  0  0  0  0  0  0  0  0
   11.7114   -3.1869   26.3629 C   0  0  0  0  0  0  0  0  0  0  0  0
   11.0759   -3.8103   27.5701 C   0  0  0  0  0  0  0  0  0  0  0  0
    9.5990   -4.0715   27.5897 C   0  0  0  0  0  0  0  0  0  0  0  0
    8.7575   -3.7093   26.4019 C   0  0  0  0  0  0  0  0  0  0  0  0
    9.3929   -3.0859   25.1946 C   0  0  0  0  0  0  0  0  0  0  0  0
   10.8699   -2.8247   25.1751 C   0  0  0  0  0  0  0  0  0  0  0  0
  3  2  1  0  0  0
  3  4  1  0  0  0
  4  5  2  0  0  0
  5  6  1  0  0  0
  6  7  1  0  0  0
  7  8  1  0  0  0
  8  9  2  0  0  0
  8  1  1  0  0  0
  1 12  1  0  0  0
 12 13  2  0  0  0
 13 14  1  0  0  0
 14 15  2  0  0  0
 15 16  1  0  0  0
 16 17  2  0  0  0
 17 18  1  0  0  0
 18 19  2  0  0  0
 19 20  1  0  0  0
 20 21  2  0  0  0
  7 10  1  0  0  0
 10 11  1  0  0  0
 11  3  1  0  0  0
 21 12  1  0  0  0
 21 16  1  0  0  0
M  END
> <minimizedAffinity>
-6.53675

> <CNNscore>
0.7160446048

> <CNNaffinity>
5.6615743637

> <CNN_VS>
4.0539398193

> <CNNaffinity_variance>
0.1414441168

$$$$



 21 23  0  0  0  0  0  0  0  0999 V2000
    9.0306   -2.6830   23.1343 C   0  0  0  0  0  0  0  0  0  0  0  0
    6.3056    2.7254   26.4162 C   0  0  0  0  0  0  0  0  0  0  0  0
    6.5744    1.2679   26.1848 C   0  0  0  0  0  0  0  0  0  0  0  0
    5.9422    0.3258   27.1660 C   0  0  0  0  0  0  0  0  0  0  0  0
    6.0193   -1.1717   27.2075 C   0  0  0  0  0  0  0  0  0  0  0  0
    6.7477   -2.0969   26.2782 C   0  0  0  0  0  0  0  0  0  0  0  0
    7.5789   -1.7530   25.0778 N   0  0  0  0  0  0  0  0  0  0  0  0
    8.1817   -2.9169   24.3486 C   0  0  0  0  0  0  0  0  0  0  0  0
    7.9355   -4.3149   24.8337 O   0  0  0  0  0  0  0  0  0  0  0  0
    7.8870   -0.3992   24.5103 C   0  0  0  0  0  0  0  0  0  0  0  0
    7.4399    0.9453   25.0029 C   0  0  0  0  0  0  0  0  0  0  0  0
   10.3173   -1.9213   23.2541 C   0  0  0  0  0  0  0  0  0  0  0  0
   10.6461   -0.8440   22.2635 C   0  0  0  0  0  0  0  0  0  0  0  0
   11.9327   -0.0822   22.3833 N   0  0  0  0  0  0  0  0  0  0  0  0
   12.8905   -0.3978   23.4937 C   0  0  0  0  0  0  0  0  0  0  0  0
   12.5617   -1.4752   24.4843 C   0  0  0  0  0  0  0  0  0  0  0  0
   13.5196   -1.7907   25.5947 C   0  0  0  0  0  0  0  0  0  0  0  0
   13.1908   -2.8680   26.5852 C   0  0  0  0  0  0  0  0  0  0  0  0
   11.9042   -3.6298   26.4654 C   0  0  0  0  0  0  0  0  0  0  0  0
   10.9463   -3.3142   25.3551 C   0  0  0  0  0  0  0  0  0  0  0  0
   11.2751   -2.2369   24.3645 C   0  0  0  0  0  0  0  0  0  0  0  0
  3  2  1  0  0  0
  3  4  1  0  0  0
  4  5  2  0  0  0
  5  6  1  0  0  0
  6  7  1  0  0  0
  7  8  1  0  0  0
  8  9  2  0  0  0
  8  1  1  0  0  0
  1 12  1  0  0  0
 12 13  2  0  0  0
 13 14  1  0  0  0
 14 15  2  0  0  0
 15 16  1  0  0  0
 16 17  2  0  0  0
 17 18  1  0  0  0
 18 19  2  0  0  0
 19 20  1  0  0  0
 20 21  2  0  0  0
  7 10  1  0  0  0
 10 11  1  0  0  0
 11  3  1  0  0  0
 21 12  1  0  0  0
 21 16  1  0  0  0
M  END
> <minimizedAffinity>
-6.59407

> <CNNscore>
0.7021379471

> <CNNaffinity>
5.4474859238

> <CNN_VS>
3.8248865604

> <CNNaffinity_variance>
0.0926101953

$$$$



 21 23  0  0  0  0  0  0  0  0999 V2000
    7.1166   -0.0615   21.5074 C   0  0  0  0  0  0  0  0  0  0  0  0
   11.7649   -2.9239   25.7081 C   0  0  0  0  0  0  0  0  0  0  0  0
   11.2198   -1.8548   24.8084 C   0  0  0  0  0  0  0  0  0  0  0  0
   12.0924   -0.6480   24.6288 C   0  0  0  0  0  0  0  0  0  0  0  0
   11.8348    0.5779   23.8036 C   0  0  0  0  0  0  0  0  0  0  0  0
   10.6411    0.8998   22.9542 C   0  0  0  0  0  0  0  0  0  0  0  0
    9.4101    0.0752   22.7202 N   0  0  0  0  0  0  0  0  0  0  0  0
    8.3849    0.6808   21.8080 C   0  0  0  0  0  0  0  0  0  0  0  0
    8.6280    2.0288   21.1963 O   0  0  0  0  0  0  0  0  0  0  0  0
    9.0688   -1.2747   23.2778 C   0  0  0  0  0  0  0  0  0  0  0  0
    9.8741   -2.1337   24.2071 C   0  0  0  0  0  0  0  0  0  0  0  0
    6.3188    0.2814   20.2843 C   0  0  0  0  0  0  0  0  0  0  0  0
    6.6988   -0.2983   18.9541 C   0  0  0  0  0  0  0  0  0  0  0  0
    5.9010    0.0445   17.7310 N   0  0  0  0  0  0  0  0  0  0  0  0
    4.7231    0.9671   17.8381 C   0  0  0  0  0  0  0  0  0  0  0  0
    4.3430    1.5468   19.1683 C   0  0  0  0  0  0  0  0  0  0  0  0
    3.1652    2.4693   19.2754 C   0  0  0  0  0  0  0  0  0  0  0  0
    2.7851    3.0490   20.6056 C   0  0  0  0  0  0  0  0  0  0  0  0
    3.5829    2.7062   21.8287 C   0  0  0  0  0  0  0  0  0  0  0  0
    4.7608    1.7837   21.7216 C   0  0  0  0  0  0  0  0  0  0  0  0
    5.1408    1.2040   20.3914 C   0  0  0  0  0  0  0  0  0  0  0  0
  3  2  1  0  0  0
  3  4  1  0  0  0
  4  5  2  0  0  0
  5  6  1  0  0  0
  6  7  1  0  0  0
  7  8  1  0  0  0
  8  9  2  0  0  0
  8  1  1  0  0  0
  1 12  1  0  0  0
 12 13  2  0  0  0
 13 14  1  0  0  0
 14 15  2  0  0  0
 15 16  1  0  0  0
 16 17  2  0  0  0
 17 18  1  0  0  0
 18 19  2  0  0  0
 19 20  1  0  0  0
 20 21  2  0  0  0
  7 10  1  0  0  0
 10 11  1  0  0  0
 11  3  1  0  0  0
 21 12  1  0  0  0
 21 16  1  0  0  0
M  END
> <minimizedAffinity>
-7.44639

> <CNNscore>
0.6827366352

> <CNNaffinity>
5.3757495880

> <CNN_VS>
3.6702210903

> <CNNaffinity_variance>
0.1093472093

$$$$



 21 23  0  0  0  0  0  0  0  0999 V2000
    8.4901   -0.5002   24.6988 C   0  0  0  0  0  0  0  0  0  0  0  0
    7.0346   -7.1738   23.8093 C   0  0  0  0  0  0  0  0  0  0  0  0
    6.8975   -5.7039   23.5439 C   0  0  0  0  0  0  0  0  0  0  0  0
    5.8924   -5.3224   22.4979 C   0  0  0  0  0  0  0  0  0  0  0  0
    5.5252   -3.9526   22.0093 C   0  0  0  0  0  0  0  0  0  0  0  0
    6.0723   -2.6259   22.4459 C   0  0  0  0  0  0  0  0  0  0  0  0
    7.1219   -2.3415   23.4791 N   0  0  0  0  0  0  0  0  0  0  0  0
    7.4537   -0.8937   23.6883 C   0  0  0  0  0  0  0  0  0  0  0  0
    6.7492    0.1606   22.8870 O   0  0  0  0  0  0  0  0  0  0  0  0
    7.8835   -3.3134   24.3308 C   0  0  0  0  0  0  0  0  0  0  0  0
    7.7836   -4.8098   24.3596 C   0  0  0  0  0  0  0  0  0  0  0  0
    9.9266   -0.3687   24.2876 C   0  0  0  0  0  0  0  0  0  0  0  0
   10.3167    0.6226   23.2316 C   0  0  0  0  0  0  0  0  0  0  0  0
   11.7533    0.7541   22.8204 N   0  0  0  0  0  0  0  0  0  0  0  0
   12.7997   -0.1057   23.4652 C   0  0  0  0  0  0  0  0  0  0  0  0
   12.4096   -1.0970   24.5212 C   0  0  0  0  0  0  0  0  0  0  0  0
   13.4560   -1.9568   25.1660 C   0  0  0  0  0  0  0  0  0  0  0  0
   13.0659   -2.9480   26.2220 C   0  0  0  0  0  0  0  0  0  0  0  0
   11.6293   -3.0795   26.6332 C   0  0  0  0  0  0  0  0  0  0  0  0
   10.5829   -2.2198   25.9884 C   0  0  0  0  0  0  0  0  0  0  0  0
   10.9731   -1.2285   24.9324 C   0  0  0  0  0  0  0  0  0  0  0  0
  3  2  1  0  0  0
  3  4  1  0  0  0
  4  5  2  0  0  0
  5  6  1  0  0  0
  6  7  1  0  0  0
  7  8  1  0  0  0
  8  9  2  0  0  0
  8  1  1  0  0  0
  1 12  1  0  0  0
 12 13  2  0  0  0
 13 14  1  0  0  0
 14 15  2  0  0  0
 15 16  1  0  0  0
 16 17  2  0  0  0
 17 18  1  0  0  0
 18 19  2  0  0  0
 19 20  1  0  0  0
 20 21  2  0  0  0
  7 10  1  0  0  0
 10 11  1  0  0  0
 11  3  1  0  0  0
 21 12  1  0  0  0
 21 16  1  0  0  0
M  END
> <minimizedAffinity>
-7.02133

> <CNNscore>
0.6443865895

> <CNNaffinity>
5.5515775681

> <CNN_VS>
3.5773620605

> <CNNaffinity_variance>
0.1483463794

$$$$



 21 23  0  0  0  0  0  0  0  0999 V2000
    9.1587   -1.9927   22.3891 C   0  0  0  0  0  0  0  0  0  0  0  0
    6.4114    1.8330   27.4153 C   0  0  0  0  0  0  0  0  0  0  0  0
    6.7021    1.4625   25.9912 C   0  0  0  0  0  0  0  0  0  0  0  0
    6.1115    2.3664   24.9500 C   0  0  0  0  0  0  0  0  0  0  0  0
    6.2180    2.2681   23.4570 C   0  0  0  0  0  0  0  0  0  0  0  0
    6.9412    1.2416   22.6364 C   0  0  0  0  0  0  0  0  0  0  0  0
    7.7367    0.0599   23.1063 N   0  0  0  0  0  0  0  0  0  0  0  0
    8.3438   -0.7867   22.0270 C   0  0  0  0  0  0  0  0  0  0  0  0
    8.1358   -0.4271   20.5856 O   0  0  0  0  0  0  0  0  0  0  0  0
    8.0054   -0.3872   24.5126 C   0  0  0  0  0  0  0  0  0  0  0  0
    7.5449    0.2370   25.7965 C   0  0  0  0  0  0  0  0  0  0  0  0
   10.4936   -1.8244   23.0524 C   0  0  0  0  0  0  0  0  0  0  0  0
   11.5260   -0.9236   22.4421 C   0  0  0  0  0  0  0  0  0  0  0  0
   12.8608   -0.7553   23.1054 N   0  0  0  0  0  0  0  0  0  0  0  0
   13.1632   -1.4878   24.3789 C   0  0  0  0  0  0  0  0  0  0  0  0
   12.1307   -2.3887   24.9893 C   0  0  0  0  0  0  0  0  0  0  0  0
   12.4331   -3.1213   26.2628 C   0  0  0  0  0  0  0  0  0  0  0  0
   11.4006   -4.0221   26.8730 C   0  0  0  0  0  0  0  0  0  0  0  0
   10.0658   -4.1904   26.2098 C   0  0  0  0  0  0  0  0  0  0  0  0
    9.7634   -3.4579   24.9362 C   0  0  0  0  0  0  0  0  0  0  0  0
   10.7959   -2.5570   24.3260 C   0  0  0  0  0  0  0  0  0  0  0  0
  3  2  1  0  0  0
  3  4  1  0  0  0
  4  5  2  0  0  0
  5  6  1  0  0  0
  6  7  1  0  0  0
  7  8  1  0  0  0
  8  9  2  0  0  0
  8  1  1  0  0  0
  1 12  1  0  0  0
 12 13  2  0  0  0
 13 14  1  0  0  0
 14 15  2  0  0  0
 15 16  1  0  0  0
 16 17  2  0  0  0
 17 18  1  0  0  0
 18 19  2  0  0  0
 19 20  1  0  0  0
 20 21  2  0  0  0
  7 10  1  0  0  0
 10 11  1  0  0  0
 11  3  1  0  0  0
 21 12  1  0  0  0
 21 16  1  0  0  0
M  END
> <minimizedAffinity>
-6.60314

> <CNNscore>
0.6170532703

> <CNNaffinity>
5.3729639053

> <CNN_VS>
3.3154048920

> <CNNaffinity_variance>
0.0325640365

$$$$



 21 23  0  0  0  0  0  0  0  0999 V2000
    9.4018   -1.7755   22.5328 C   0  0  0  0  0  0  0  0  0  0  0  0
   11.8598    4.6442   22.9711 C   0  0  0  0  0  0  0  0  0  0  0  0
   10.7850    3.6003   22.9016 C   0  0  0  0  0  0  0  0  0  0  0  0
    9.3760    4.1133   22.9407 C   0  0  0  0  0  0  0  0  0  0  0  0
    8.0952    3.3341   22.8900 C   0  0  0  0  0  0  0  0  0  0  0  0
    7.9071    1.8495   22.7876 C   0  0  0  0  0  0  0  0  0  0  0  0
    8.9534    0.7773   22.7107 N   0  0  0  0  0  0  0  0  0  0  0  0
    8.4388   -0.6284   22.6147 C   0  0  0  0  0  0  0  0  0  0  0  0
    6.9613   -0.8869   22.6005 O   0  0  0  0  0  0  0  0  0  0  0  0
   10.4460    0.9250   22.7172 C   0  0  0  0  0  0  0  0  0  0  0  0
   11.2612    2.1813   22.8021 C   0  0  0  0  0  0  0  0  0  0  0  0
    9.6556   -2.6293   23.7397 C   0  0  0  0  0  0  0  0  0  0  0  0
    8.6073   -3.5935   24.2102 C   0  0  0  0  0  0  0  0  0  0  0  0
    8.8611   -4.4473   25.4171 N   0  0  0  0  0  0  0  0  0  0  0  0
   10.1632   -4.3369   26.1535 C   0  0  0  0  0  0  0  0  0  0  0  0
   11.2115   -3.3727   25.6830 C   0  0  0  0  0  0  0  0  0  0  0  0
   12.5136   -3.2623   26.4195 C   0  0  0  0  0  0  0  0  0  0  0  0
   13.5619   -2.2981   25.9490 C   0  0  0  0  0  0  0  0  0  0  0  0
   13.3081   -1.4443   24.7420 C   0  0  0  0  0  0  0  0  0  0  0  0
   12.0060   -1.5547   24.0056 C   0  0  0  0  0  0  0  0  0  0  0  0
   10.9577   -2.5189   24.4761 C   0  0  0  0  0  0  0  0  0  0  0  0
  3  2  1  0  0  0
  3  4  1  0  0  0
  4  5  2  0  0  0
  5  6  1  0  0  0
  6  7  1  0  0  0
  7  8  1  0  0  0
  8  9  2  0  0  0
  8  1  1  0  0  0
  1 12  1  0  0  0
 12 13  2  0  0  0
 13 14  1  0  0  0
 14 15  2  0  0  0
 15 16  1  0  0  0
 16 17  2  0  0  0
 17 18  1  0  0  0
 18 19  2  0  0  0
 19 20  1  0  0  0
 20 21  2  0  0  0
  7 10  1  0  0  0
 10 11  1  0  0  0
 11  3  1  0  0  0
 21 12  1  0  0  0
 21 16  1  0  0  0
M  END
> <minimizedAffinity>
-6.92030

> <CNNscore>
0.6010731459

> <CNNaffinity>
5.5304422379

> <CNN_VS>
3.3242003918

> <CNNaffinity_variance>
0.0646683648

$$$$



 21 23  0  0  0  0  0  0  0  0999 V2000
    8.0320   -2.0358   26.0090 C   0  0  0  0  0  0  0  0  0  0  0  0
    5.7151   -6.3637   21.1770 C   0  0  0  0  0  0  0  0  0  0  0  0
    5.7539   -5.7419   22.5414 C   0  0  0  0  0  0  0  0  0  0  0  0
    4.7652   -6.2827   23.5314 C   0  0  0  0  0  0  0  0  0  0  0  0
    4.5548   -5.8766   24.9600 C   0  0  0  0  0  0  0  0  0  0  0  0
    5.2809   -4.8296   25.7515 C   0  0  0  0  0  0  0  0  0  0  0  0
    6.3970   -3.9299   25.3098 N   0  0  0  0  0  0  0  0  0  0  0  0
    6.9162   -2.9794   26.3475 C   0  0  0  0  0  0  0  0  0  0  0  0
    6.3195   -2.9724   27.7237 O   0  0  0  0  0  0  0  0  0  0  0  0
    7.0624   -3.8552   23.9676 C   0  0  0  0  0  0  0  0  0  0  0  0
    6.7763   -4.6615   22.7356 C   0  0  0  0  0  0  0  0  0  0  0  0
    9.4575   -2.4888   26.1218 C   0  0  0  0  0  0  0  0  0  0  0  0
    9.8052   -3.6624   26.9888 C   0  0  0  0  0  0  0  0  0  0  0  0
   11.2307   -4.1153   27.1015 N   0  0  0  0  0  0  0  0  0  0  0  0
   12.3085   -3.3947   26.3473 C   0  0  0  0  0  0  0  0  0  0  0  0
   11.9609   -2.2211   25.4802 C   0  0  0  0  0  0  0  0  0  0  0  0
   13.0387   -1.5005   24.7260 C   0  0  0  0  0  0  0  0  0  0  0  0
   12.6910   -0.3269   23.8589 C   0  0  0  0  0  0  0  0  0  0  0  0
   11.2655    0.1261   23.7462 C   0  0  0  0  0  0  0  0  0  0  0  0
   10.1877   -0.5945   24.5004 C   0  0  0  0  0  0  0  0  0  0  0  0
   10.5354   -1.7681   25.3674 C   0  0  0  0  0  0  0  0  0  0  0  0
  3  2  1  0  0  0
  3  4  1  0  0  0
  4  5  2  0  0  0
  5  6  1  0  0  0
  6  7  1  0  0  0
  7  8  1  0  0  0
  8  9  2  0  0  0
  8  1  1  0  0  0
  1 12  1  0  0  0
 12 13  2  0  0  0
 13 14  1  0  0  0
 14 15  2  0  0  0
 15 16  1  0  0  0
 16 17  2  0  0  0
 17 18  1  0  0  0
 18 19  2  0  0  0
 19 20  1  0  0  0
 20 21  2  0  0  0
  7 10  1  0  0  0
 10 11  1  0  0  0
 11  3  1  0  0  0
 21 12  1  0  0  0
 21 16  1  0  0  0
M  END
> <minimizedAffinity>
-6.84214

> <CNNscore>
0.5410317779

> <CNNaffinity>
5.3690938950

> <CNN_VS>
2.9048504829

> <CNNaffinity_variance>
0.0938094258

$$$$
