


 20 22  0  0  0  0  0  0  0  0999 V2000
   -6.5189   -1.9277  -21.7579 C   0  0  0  0  0  0  0  0  0  0  0  0
   -6.0463   -1.1482  -20.5667 C   0  0  0  0  0  0  0  0  0  0  0  0
   -6.7452   -1.2968  -19.2478 C   0  0  0  0  0  0  0  0  0  0  0  0
   -6.2727   -0.5173  -18.0566 N   0  0  0  0  0  0  0  0  0  0  0  0
   -5.1011    0.4106  -18.1841 C   0  0  0  0  0  0  0  0  0  0  0  0
   -4.4021    0.5592  -19.5030 C   0  0  0  0  0  0  0  0  0  0  0  0
   -3.2306    1.4872  -19.6305 C   0  0  0  0  0  0  0  0  0  0  0  0
   -2.5316    1.6357  -20.9494 C   0  0  0  0  0  0  0  0  0  0  0  0
   -3.0042    0.8563  -22.1406 C   0  0  0  0  0  0  0  0  0  0  0  0
   -4.1757   -0.0717  -22.0131 C   0  0  0  0  0  0  0  0  0  0  0  0
   -4.8747   -0.2202  -20.6943 C   0  0  0  0  0  0  0  0  0  0  0  0
   -5.2778   -4.0460  -20.9078 O   0  0  0  0  0  0  0  0  0  0  0  0
   -6.2647   -3.4038  -21.8373 C   0  0  0  0  0  0  0  0  0  0  0  0
   -6.9973   -4.2379  -22.8461 N   0  0  0  0  0  0  0  0  0  0  0  0
   -6.6696   -5.7017  -22.8415 C   0  0  0  0  0  0  0  0  0  0  0  0
   -7.2245   -6.7869  -23.7158 C   0  0  0  0  0  0  0  0  0  0  0  0
   -8.2441   -6.6765  -24.8105 C   0  0  0  0  0  0  0  0  0  0  0  0
   -8.9606   -5.4535  -25.3013 C   0  0  0  0  0  0  0  0  0  0  0  0
   -8.8344   -4.0389  -24.8186 C   0  0  0  0  0  0  0  0  0  0  0  0
   -7.9607   -3.4979  -23.7259 C   0  0  0  0  0  0  0  0  0  0  0  0
 12 13  2  0  0  0
 13  1  1  0  0  0
  1  2  1  0  0  0
  2  3  2  0  0  0
  3  4  1  0  0  0
  4  5  2  0  0  0
  5  6  1  0  0  0
  6  7  2  0  0  0
  7  8  1  0  0  0
  8  9  2  0  0  0
  9 10  1  0  0  0
 10 11  2  0  0  0
 13 14  1  0  0  0
 14 15  1  0  0  0
 15 16  1  0  0  0
 16 17  2  0  0  0
 17 18  1  0  0  0
 18 19  1  0  0  0
 19 20  1  0  0  0
 11  2  1  0  0  0
 20 14  1  0  0  0
 11  6  1  0  0  0
M  END
> <minimizedAffinity>
-6.97688

> <CNNscore>
0.6851270199

> <CNNaffinity>
5.0009927750

> <CNN_VS>
3.4263153076

> <CNNaffinity_variance>
0.2796729505

$$$$



 20 22  0  0  0  0  0  0  0  0999 V2000
   -6.5092   -2.1935  -21.5889 C   0  0  0  0  0  0  0  0  0  0  0  0
   -5.9929   -1.3446  -20.4652 C   0  0  0  0  0  0  0  0  0  0  0  0
   -6.5791   -1.4814  -19.0913 C   0  0  0  0  0  0  0  0  0  0  0  0
   -6.0628   -0.6324  -17.9676 N   0  0  0  0  0  0  0  0  0  0  0  0
   -4.9604    0.3534  -18.2178 C   0  0  0  0  0  0  0  0  0  0  0  0
   -4.3741    0.4903  -19.5918 C   0  0  0  0  0  0  0  0  0  0  0  0
   -3.2717    1.4761  -19.8420 C   0  0  0  0  0  0  0  0  0  0  0  0
   -2.6855    1.6130  -21.2158 C   0  0  0  0  0  0  0  0  0  0  0  0
   -3.2018    0.7640  -22.3395 C   0  0  0  0  0  0  0  0  0  0  0  0
   -4.3042   -0.2218  -22.0893 C   0  0  0  0  0  0  0  0  0  0  0  0
   -4.8904   -0.3587  -20.7154 C   0  0  0  0  0  0  0  0  0  0  0  0
   -8.6992   -0.7969  -21.6481 O   0  0  0  0  0  0  0  0  0  0  0  0
   -7.8906   -1.9658  -22.1274 C   0  0  0  0  0  0  0  0  0  0  0  0
   -8.4633   -2.9070  -23.1453 N   0  0  0  0  0  0  0  0  0  0  0  0
   -9.8510   -2.5888  -23.6177 C   0  0  0  0  0  0  0  0  0  0  0  0
  -10.6906   -3.3271  -24.6177 C   0  0  0  0  0  0  0  0  0  0  0  0
  -10.3502   -4.5657  -25.3923 C   0  0  0  0  0  0  0  0  0  0  0  0
   -9.0858   -5.3720  -25.3581 C   0  0  0  0  0  0  0  0  0  0  0  0
   -7.8497   -5.1389  -24.5410 C   0  0  0  0  0  0  0  0  0  0  0  0
   -7.5727   -4.0418  -23.5562 C   0  0  0  0  0  0  0  0  0  0  0  0
 12 13  2  0  0  0
 13  1  1  0  0  0
  1  2  1  0  0  0
  2  3  2  0  0  0
  3  4  1  0  0  0
  4  5  2  0  0  0
  5  6  1  0  0  0
  6  7  2  0  0  0
  7  8  1  0  0  0
  8  9  2  0  0  0
  9 10  1  0  0  0
 10 11  2  0  0  0
 13 14  1  0  0  0
 14 15  1  0  0  0
 15 16  1  0  0  0
 16 17  2  0  0  0
 17 18  1  0  0  0
 18 19  1  0  0  0
 19 20  1  0  0  0
 11  2  1  0  0  0
 20 14  1  0  0  0
 11  6  1  0  0  0
M  END
> <minimizedAffinity>
-6.71865

> <CNNscore>
0.6360707283

> <CNNaffinity>
4.8882846832

> <CNN_VS>
3.1092948914

> <CNNaffinity_variance>
0.2577128410

$$$$



 20 22  0  0  0  0  0  0  0  0999 V2000
   -6.0400   -1.8440  -21.2504 C   0  0  0  0  0  0  0  0  0  0  0  0
   -5.1879   -0.7316  -20.7151 C   0  0  0  0  0  0  0  0  0  0  0  0
   -5.2717   -0.3535  -19.2660 C   0  0  0  0  0  0  0  0  0  0  0  0
   -4.4195    0.7589  -18.7306 N   0  0  0  0  0  0  0  0  0  0  0  0
   -3.4836    1.4931  -19.6444 C   0  0  0  0  0  0  0  0  0  0  0  0
   -3.3998    1.1149  -21.0936 C   0  0  0  0  0  0  0  0  0  0  0  0
   -2.4638    1.8491  -22.0073 C   0  0  0  0  0  0  0  0  0  0  0  0
   -2.3800    1.4709  -23.4564 C   0  0  0  0  0  0  0  0  0  0  0  0
   -3.2322    0.3585  -23.9918 C   0  0  0  0  0  0  0  0  0  0  0  0
   -4.1681   -0.3756  -23.0780 C   0  0  0  0  0  0  0  0  0  0  0  0
   -4.2519    0.0026  -21.6289 C   0  0  0  0  0  0  0  0  0  0  0  0
   -5.0214   -3.6194  -19.6503 O   0  0  0  0  0  0  0  0  0  0  0  0
   -5.6883   -3.2704  -20.9478 C   0  0  0  0  0  0  0  0  0  0  0  0
   -6.0035   -4.3478  -21.9427 N   0  0  0  0  0  0  0  0  0  0  0  0
   -5.6104   -5.7389  -21.5419 C   0  0  0  0  0  0  0  0  0  0  0  0
   -5.7869   -7.0174  -22.3064 C   0  0  0  0  0  0  0  0  0  0  0  0
   -6.3999   -7.2207  -23.6602 C   0  0  0  0  0  0  0  0  0  0  0  0
   -6.9880   -6.1956  -24.5840 C   0  0  0  0  0  0  0  0  0  0  0  0
   -7.1082   -4.7141  -24.3821 C   0  0  0  0  0  0  0  0  0  0  0  0
   -6.6701   -3.8918  -23.2066 C   0  0  0  0  0  0  0  0  0  0  0  0
 12 13  2  0  0  0
 13  1  1  0  0  0
  1  2  1  0  0  0
  2  3  2  0  0  0
  3  4  1  0  0  0
  4  5  2  0  0  0
  5  6  1  0  0  0
  6  7  2  0  0  0
  7  8  1  0  0  0
  8  9  2  0  0  0
  9 10  1  0  0  0
 10 11  2  0  0  0
 13 14  1  0  0  0
 14 15  1  0  0  0
 15 16  1  0  0  0
 16 17  2  0  0  0
 17 18  1  0  0  0
 18 19  1  0  0  0
 19 20  1  0  0  0
 11  2  1  0  0  0
 20 14  1  0  0  0
 11  6  1  0  0  0
M  END
> <minimizedAffinity>
-6.34386

> <CNNscore>
0.6032025814

> <CNNaffinity>
4.6196694374

> <CNN_VS>
2.7865965366

> <CNNaffinity_variance>
0.2603765130

$$$$



 20 22  0  0  0  0  0  0  0  0999 V2000
   -7.2676   -0.3662  -22.1721 C   0  0  0  0  0  0  0  0  0  0  0  0
   -6.5322   -0.2218  -20.8727 C   0  0  0  0  0  0  0  0  0  0  0  0
   -7.0636   -0.8782  -19.6331 C   0  0  0  0  0  0  0  0  0  0  0  0
   -6.3282   -0.7337  -18.3338 N   0  0  0  0  0  0  0  0  0  0  0  0
   -5.0613    0.0671  -18.2741 C   0  0  0  0  0  0  0  0  0  0  0  0
   -4.5298    0.7236  -19.5137 C   0  0  0  0  0  0  0  0  0  0  0  0
   -3.2629    1.5245  -19.4540 C   0  0  0  0  0  0  0  0  0  0  0  0
   -2.7315    2.1809  -20.6936 C   0  0  0  0  0  0  0  0  0  0  0  0
   -3.4669    2.0364  -21.9929 C   0  0  0  0  0  0  0  0  0  0  0  0
   -4.7338    1.2355  -22.0527 C   0  0  0  0  0  0  0  0  0  0  0  0
   -5.2652    0.5791  -20.8131 C   0  0  0  0  0  0  0  0  0  0  0  0
   -8.1101    2.0450  -22.6479 O   0  0  0  0  0  0  0  0  0  0  0  0
   -8.3840    0.5765  -22.5108 C   0  0  0  0  0  0  0  0  0  0  0  0
   -9.7743    0.0509  -22.7126 N   0  0  0  0  0  0  0  0  0  0  0  0
  -10.8158    1.0771  -23.0476 C   0  0  0  0  0  0  0  0  0  0  0  0
  -12.2795    0.8744  -23.3054 C   0  0  0  0  0  0  0  0  0  0  0  0
  -13.0633   -0.4045  -23.2918 C   0  0  0  0  0  0  0  0  0  0  0  0
  -12.5769   -1.7966  -23.0172 C   0  0  0  0  0  0  0  0  0  0  0  0
  -11.1866   -2.2536  -22.6882 C   0  0  0  0  0  0  0  0  0  0  0  0
   -9.9393   -1.4313  -22.5526 C   0  0  0  0  0  0  0  0  0  0  0  0
 12 13  2  0  0  0
 13  1  1  0  0  0
  1  2  1  0  0  0
  2  3  2  0  0  0
  3  4  1  0  0  0
  4  5  2  0  0  0
  5  6  1  0  0  0
  6  7  2  0  0  0
  7  8  1  0  0  0
  8  9  2  0  0  0
  9 10  1  0  0  0
 10 11  2  0  0  0
 13 14  1  0  0  0
 14 15  1  0  0  0
 15 16  1  0  0  0
 16 17  2  0  0  0
 17 18  1  0  0  0
 18 19  1  0  0  0
 19 20  1  0  0  0
 11  2  1  0  0  0
 20 14  1  0  0  0
 11  6  1  0  0  0
M  END
> <minimizedAffinity>
-6.72270

> <CNNscore>
0.4677709937

> <CNNaffinity>
4.7746443748

> <CNN_VS>
2.2334401608

> <CNNaffinity_variance>
0.2476083785

$$$$



 20 22  0  0  0  0  0  0  0  0999 V2000
   -6.2855   -1.7404  -21.2406 C   0  0  0  0  0  0  0  0  0  0  0  0
   -5.3475   -0.6920  -20.7202 C   0  0  0  0  0  0  0  0  0  0  0  0
   -5.3901   -0.2991  -19.2732 C   0  0  0  0  0  0  0  0  0  0  0  0
   -4.4521    0.7493  -18.7528 N   0  0  0  0  0  0  0  0  0  0  0  0
   -3.4714    1.4049  -19.6793 C   0  0  0  0  0  0  0  0  0  0  0  0
   -3.4287    1.0120  -21.1263 C   0  0  0  0  0  0  0  0  0  0  0  0
   -2.4480    1.6675  -22.0529 C   0  0  0  0  0  0  0  0  0  0  0  0
   -2.4053    1.2746  -23.4998 C   0  0  0  0  0  0  0  0  0  0  0  0
   -3.3434    0.2261  -24.0203 C   0  0  0  0  0  0  0  0  0  0  0  0
   -4.3241   -0.4294  -23.0938 C   0  0  0  0  0  0  0  0  0  0  0  0
   -4.3667   -0.0365  -21.6468 C   0  0  0  0  0  0  0  0  0  0  0  0
   -8.3323   -0.1547  -21.0257 O   0  0  0  0  0  0  0  0  0  0  0  0
   -7.6868   -1.3687  -21.6255 C   0  0  0  0  0  0  0  0  0  0  0  0
   -8.4426   -2.2108  -22.6102 N   0  0  0  0  0  0  0  0  0  0  0  0
   -9.8352   -1.7513  -22.9256 C   0  0  0  0  0  0  0  0  0  0  0  0
  -10.8350   -2.3686  -23.8580 C   0  0  0  0  0  0  0  0  0  0  0  0
  -10.6892   -3.5978  -24.7053 C   0  0  0  0  0  0  0  0  0  0  0  0
   -9.5074   -4.5133  -24.8294 C   0  0  0  0  0  0  0  0  0  0  0  0
   -8.1797   -4.4257  -24.1368 C   0  0  0  0  0  0  0  0  0  0  0  0
   -7.7058   -3.4009  -23.1492 C   0  0  0  0  0  0  0  0  0  0  0  0
 12 13  2  0  0  0
 13  1  1  0  0  0
  1  2  1  0  0  0
  2  3  2  0  0  0
  3  4  1  0  0  0
  4  5  2  0  0  0
  5  6  1  0  0  0
  6  7  2  0  0  0
  7  8  1  0  0  0
  8  9  2  0  0  0
  9 10  1  0  0  0
 10 11  2  0  0  0
 13 14  1  0  0  0
 14 15  1  0  0  0
 15 16  1  0  0  0
 16 17  2  0  0  0
 17 18  1  0  0  0
 18 19  1  0  0  0
 19 20  1  0  0  0
 11  2  1  0  0  0
 20 14  1  0  0  0
 11  6  1  0  0  0
M  END
> <minimizedAffinity>
-6.05017

> <CNNscore>
0.4660659730

> <CNNaffinity>
4.5635967255

> <CNN_VS>
2.1269371510

> <CNNaffinity_variance>
0.2365126610

$$$$



 20 22  0  0  0  0  0  0  0  0999 V2000
  -11.2878    1.6407  -22.7607 C   0  0  0  0  0  0  0  0  0  0  0  0
  -12.0435    2.8974  -23.0762 C   0  0  0  0  0  0  0  0  0  0  0  0
  -13.2310    3.2867  -22.2466 C   0  0  0  0  0  0  0  0  0  0  0  0
  -13.9868    4.5434  -22.5620 N   0  0  0  0  0  0  0  0  0  0  0  0
  -13.5550    5.4109  -23.7070 C   0  0  0  0  0  0  0  0  0  0  0  0
  -12.3675    5.0216  -24.5367 C   0  0  0  0  0  0  0  0  0  0  0  0
  -11.9357    5.8891  -25.6817 C   0  0  0  0  0  0  0  0  0  0  0  0
  -10.7482    5.4998  -26.5113 C   0  0  0  0  0  0  0  0  0  0  0  0
   -9.9925    4.2431  -26.1958 C   0  0  0  0  0  0  0  0  0  0  0  0
  -10.4242    3.3756  -25.0508 C   0  0  0  0  0  0  0  0  0  0  0  0
  -11.6117    3.7649  -24.2212 C   0  0  0  0  0  0  0  0  0  0  0  0
  -13.0896    0.1987  -23.9540 O   0  0  0  0  0  0  0  0  0  0  0  0
  -11.7180    0.3358  -23.3623 C   0  0  0  0  0  0  0  0  0  0  0  0
  -10.7767   -0.8321  -23.3723 N   0  0  0  0  0  0  0  0  0  0  0  0
  -11.3057   -2.0889  -23.9973 C   0  0  0  0  0  0  0  0  0  0  0  0
  -10.6194   -3.4127  -24.1603 C   0  0  0  0  0  0  0  0  0  0  0  0
   -9.2349   -3.8067  -23.7386 C   0  0  0  0  0  0  0  0  0  0  0  0
   -8.1946   -2.9742  -23.0497 C   0  0  0  0  0  0  0  0  0  0  0  0
   -8.2819   -1.5420  -22.6124 C   0  0  0  0  0  0  0  0  0  0  0  0
   -9.4311   -0.5887  -22.7560 C   0  0  0  0  0  0  0  0  0  0  0  0
 12 13  2  0  0  0
 13  1  1  0  0  0
  1  2  1  0  0  0
  2  3  2  0  0  0
  3  4  1  0  0  0
  4  5  2  0  0  0
  5  6  1  0  0  0
  6  7  2  0  0  0
  7  8  1  0  0  0
  8  9  2  0  0  0
  9 10  1  0  0  0
 10 11  2  0  0  0
 13 14  1  0  0  0
 14 15  1  0  0  0
 15 16  1  0  0  0
 16 17  2  0  0  0
 17 18  1  0  0  0
 18 19  1  0  0  0
 19 20  1  0  0  0
 11  2  1  0  0  0
 20 14  1  0  0  0
 11  6  1  0  0  0
M  END
> <minimizedAffinity>
-5.82656

> <CNNscore>
0.4189652205

> <CNNaffinity>
4.6235437393

> <CNN_VS>
1.9371039867

> <CNNaffinity_variance>
0.2301416844

$$$$



 20 22  0  0  0  0  0  0  0  0999 V2000
   -7.5912    0.0454  -22.0406 C   0  0  0  0  0  0  0  0  0  0  0  0
   -6.7398   -0.0156  -20.8072 C   0  0  0  0  0  0  0  0  0  0  0  0
   -7.1614   -0.8665  -19.6461 C   0  0  0  0  0  0  0  0  0  0  0  0
   -6.3100   -0.9275  -18.4127 N   0  0  0  0  0  0  0  0  0  0  0  0
   -5.0370   -0.1375  -18.3403 C   0  0  0  0  0  0  0  0  0  0  0  0
   -4.6153    0.7136  -19.5014 C   0  0  0  0  0  0  0  0  0  0  0  0
   -3.3423    1.5036  -19.4290 C   0  0  0  0  0  0  0  0  0  0  0  0
   -2.9208    2.3545  -20.5900 C   0  0  0  0  0  0  0  0  0  0  0  0
   -3.7722    2.4155  -21.8234 C   0  0  0  0  0  0  0  0  0  0  0  0
   -5.0452    1.6255  -21.8958 C   0  0  0  0  0  0  0  0  0  0  0  0
   -5.4668    0.7745  -20.7348 C   0  0  0  0  0  0  0  0  0  0  0  0
   -8.3691   -2.4331  -22.0881 O   0  0  0  0  0  0  0  0  0  0  0  0
   -8.6704   -0.9735  -22.2581 C   0  0  0  0  0  0  0  0  0  0  0  0
  -10.0508   -0.5328  -22.6456 N   0  0  0  0  0  0  0  0  0  0  0  0
  -11.0544   -1.6308  -22.8385 C   0  0  0  0  0  0  0  0  0  0  0  0
  -12.5002   -1.5195  -23.2224 C   0  0  0  0  0  0  0  0  0  0  0  0
  -13.2995   -0.2828  -23.5082 C   0  0  0  0  0  0  0  0  0  0  0  0
  -12.8504    1.1481  -23.4808 C   0  0  0  0  0  0  0  0  0  0  0  0
  -11.4910    1.6957  -23.1607 C   0  0  0  0  0  0  0  0  0  0  0  0
  -10.2451    0.9476  -22.7890 C   0  0  0  0  0  0  0  0  0  0  0  0
 12 13  2  0  0  0
 13  1  1  0  0  0
  1  2  1  0  0  0
  2  3  2  0  0  0
  3  4  1  0  0  0
  4  5  2  0  0  0
  5  6  1  0  0  0
  6  7  2  0  0  0
  7  8  1  0  0  0
  8  9  2  0  0  0
  9 10  1  0  0  0
 10 11  2  0  0  0
 13 14  1  0  0  0
 14 15  1  0  0  0
 15 16  1  0  0  0
 16 17  2  0  0  0
 17 18  1  0  0  0
 18 19  1  0  0  0
 19 20  1  0  0  0
 11  2  1  0  0  0
 20 14  1  0  0  0
 11  6  1  0  0  0
M  END
> <minimizedAffinity>
-7.03515

> <CNNscore>
0.4027959704

> <CNNaffinity>
4.7080287933

> <CNN_VS>
1.8963750601

> <CNNaffinity_variance>
0.3612524569

$$$$



 20 22  0  0  0  0  0  0  0  0999 V2000
   -8.7447   -2.1109  -24.1295 C   0  0  0  0  0  0  0  0  0  0  0  0
  -10.1604   -1.8975  -23.6819 C   0  0  0  0  0  0  0  0  0  0  0  0
  -10.9914   -3.0655  -23.2401 C   0  0  0  0  0  0  0  0  0  0  0  0
  -12.4071   -2.8522  -22.7925 N   0  0  0  0  0  0  0  0  0  0  0  0
  -12.9918   -1.4709  -22.7867 C   0  0  0  0  0  0  0  0  0  0  0  0
  -12.1608   -0.3028  -23.2286 C   0  0  0  0  0  0  0  0  0  0  0  0
  -12.7455    1.0785  -23.2228 C   0  0  0  0  0  0  0  0  0  0  0  0
  -11.9145    2.2465  -23.6646 C   0  0  0  0  0  0  0  0  0  0  0  0
  -10.4988    2.0331  -24.1122 C   0  0  0  0  0  0  0  0  0  0  0  0
   -9.9141    0.6518  -24.1180 C   0  0  0  0  0  0  0  0  0  0  0  0
  -10.7451   -0.5161  -23.6762 C   0  0  0  0  0  0  0  0  0  0  0  0
   -7.0445   -1.4082  -22.2949 O   0  0  0  0  0  0  0  0  0  0  0  0
   -7.6887   -2.4758  -23.1288 C   0  0  0  0  0  0  0  0  0  0  0  0
   -7.2766   -3.9084  -22.9619 N   0  0  0  0  0  0  0  0  0  0  0  0
   -6.2135   -4.1645  -21.9352 C   0  0  0  0  0  0  0  0  0  0  0  0
   -5.5934   -5.4709  -21.5368 C   0  0  0  0  0  0  0  0  0  0  0  0
   -5.8833   -6.8440  -22.0667 C   0  0  0  0  0  0  0  0  0  0  0  0
   -6.8648   -7.2497  -23.1259 C   0  0  0  0  0  0  0  0  0  0  0  0
   -7.7990   -6.3825  -23.9167 C   0  0  0  0  0  0  0  0  0  0  0  0
   -7.9822   -4.8955  -23.8437 C   0  0  0  0  0  0  0  0  0  0  0  0
 12 13  2  0  0  0
 13  1  1  0  0  0
  1  2  1  0  0  0
  2  3  2  0  0  0
  3  4  1  0  0  0
  4  5  2  0  0  0
  5  6  1  0  0  0
  6  7  2  0  0  0
  7  8  1  0  0  0
  8  9  2  0  0  0
  9 10  1  0  0  0
 10 11  2  0  0  0
 13 14  1  0  0  0
 14 15  1  0  0  0
 15 16  1  0  0  0
 16 17  2  0  0  0
 17 18  1  0  0  0
 18 19  1  0  0  0
 19 20  1  0  0  0
 11  2  1  0  0  0
 20 14  1  0  0  0
 11  6  1  0  0  0
M  END
> <minimizedAffinity>
-6.00081

> <CNNscore>
0.3854624331

> <CNNaffinity>
4.9093255997

> <CNN_VS>
1.8923605680

> <CNNaffinity_variance>
0.2798811793

$$$$



 20 22  0  0  0  0  0  0  0  0999 V2000
   -7.5683    0.1150  -21.9759 C   0  0  0  0  0  0  0  0  0  0  0  0
   -6.6903    0.0065  -20.7646 C   0  0  0  0  0  0  0  0  0  0  0  0
   -7.0646   -0.9221  -19.6477 C   0  0  0  0  0  0  0  0  0  0  0  0
   -6.1866   -1.0306  -18.4363 N   0  0  0  0  0  0  0  0  0  0  0  0
   -4.9343   -0.2104  -18.3419 C   0  0  0  0  0  0  0  0  0  0  0  0
   -4.5599    0.7182  -19.4589 C   0  0  0  0  0  0  0  0  0  0  0  0
   -3.3075    1.5383  -19.3644 C   0  0  0  0  0  0  0  0  0  0  0  0
   -2.9332    2.4669  -20.4813 C   0  0  0  0  0  0  0  0  0  0  0  0
   -3.8112    2.5754  -21.6927 C   0  0  0  0  0  0  0  0  0  0  0  0
   -5.0636    1.7553  -21.7871 C   0  0  0  0  0  0  0  0  0  0  0  0
   -5.4379    0.8267  -20.6702 C   0  0  0  0  0  0  0  0  0  0  0  0
   -6.0638   -0.8558  -23.8584 O   0  0  0  0  0  0  0  0  0  0  0  0
   -7.3743   -0.8240  -23.1293 C   0  0  0  0  0  0  0  0  0  0  0  0
   -8.4909   -1.7313  -23.5538 N   0  0  0  0  0  0  0  0  0  0  0  0
   -8.1926   -2.6300  -24.7172 C   0  0  0  0  0  0  0  0  0  0  0  0
   -9.0879   -3.6393  -25.3728 C   0  0  0  0  0  0  0  0  0  0  0  0
  -10.5025   -3.9992  -25.0271 C   0  0  0  0  0  0  0  0  0  0  0  0
  -11.3711   -3.4387  -23.9402 C   0  0  0  0  0  0  0  0  0  0  0  0
  -11.0397   -2.3799  -22.9307 C   0  0  0  0  0  0  0  0  0  0  0  0
   -9.7579   -1.6200  -22.7588 C   0  0  0  0  0  0  0  0  0  0  0  0
 12 13  2  0  0  0
 13  1  1  0  0  0
  1  2  1  0  0  0
  2  3  2  0  0  0
  3  4  1  0  0  0
  4  5  2  0  0  0
  5  6  1  0  0  0
  6  7  2  0  0  0
  7  8  1  0  0  0
  8  9  2  0  0  0
  9 10  1  0  0  0
 10 11  2  0  0  0
 13 14  1  0  0  0
 14 15  1  0  0  0
 15 16  1  0  0  0
 16 17  2  0  0  0
 17 18  1  0  0  0
 18 19  1  0  0  0
 19 20  1  0  0  0
 11  2  1  0  0  0
 20 14  1  0  0  0
 11  6  1  0  0  0
M  END
> <minimizedAffinity>
-6.24278

> <CNNscore>
0.3646500111

> <CNNaffinity>
4.6110563278

> <CNN_VS>
1.6814217567

> <CNNaffinity_variance>
0.0938746184

$$$$
