


 20 22  0  0  0  0  0  0  0  0999 V2000
    8.9795   -2.7027   23.2828 C   0  0  0  0  0  0  0  0  0  0  0  0
   10.2197   -1.8706   23.4220 C   0  0  0  0  0  0  0  0  0  0  0  0
   10.4439   -0.7004   22.5108 C   0  0  0  0  0  0  0  0  0  0  0  0
   11.6841    0.1318   22.6500 N   0  0  0  0  0  0  0  0  0  0  0  0
   12.7001   -0.2062   23.7004 C   0  0  0  0  0  0  0  0  0  0  0  0
   12.4760   -1.3765   24.6116 C   0  0  0  0  0  0  0  0  0  0  0  0
   13.4920   -1.7145   25.6620 C   0  0  0  0  0  0  0  0  0  0  0  0
   13.2678   -2.8847   26.5733 C   0  0  0  0  0  0  0  0  0  0  0  0
   12.0276   -3.7169   26.4340 C   0  0  0  0  0  0  0  0  0  0  0  0
   11.0116   -3.3788   25.3836 C   0  0  0  0  0  0  0  0  0  0  0  0
   11.2358   -2.2087   24.4724 C   0  0  0  0  0  0  0  0  0  0  0  0
    8.4955   -4.7873   24.7560 O   0  0  0  0  0  0  0  0  0  0  0  0
    8.3484   -3.3171   24.4969 C   0  0  0  0  0  0  0  0  0  0  0  0
    7.5701   -2.4615   25.4520 N   0  0  0  0  0  0  0  0  0  0  0  0
    6.9807   -3.1746   26.6327 C   0  0  0  0  0  0  0  0  0  0  0  0
    6.1598   -2.6081   27.7531 C   0  0  0  0  0  0  0  0  0  0  0  0
    5.7256   -1.1887   27.9695 C   0  0  0  0  0  0  0  0  0  0  0  0
    6.0050    0.0148   27.1189 C   0  0  0  0  0  0  0  0  0  0  0  0
    6.7877    0.0961   25.8419 C   0  0  0  0  0  0  0  0  0  0  0  0
    7.4843   -1.0059   25.1000 C   0  0  0  0  0  0  0  0  0  0  0  0
 12 13  2  0  0  0
 13  1  1  0  0  0
  1  2  1  0  0  0
  2  3  2  0  0  0
  3  4  1  0  0  0
  4  5  2  0  0  0
  5  6  1  0  0  0
  6  7  2  0  0  0
  7  8  1  0  0  0
  8  9  2  0  0  0
  9 10  1  0  0  0
 10 11  2  0  0  0
 13 14  1  0  0  0
 14 15  1  0  0  0
 15 16  1  0  0  0
 16 17  2  0  0  0
 17 18  1  0  0  0
 18 19  1  0  0  0
 19 20  1  0  0  0
 11  2  1  0  0  0
 20 14  1  0  0  0
 11  6  1  0  0  0
M  END
> <minimizedAffinity>
-6.49350

> <CNNscore>
0.7280413508

> <CNNaffinity>
5.3938627243

> <CNN_VS>
3.9269552231

> <CNNaffinity_variance>
0.0847158581

$$$$



 20 22  0  0  0  0  0  0  0  0999 V2000
    9.0944   -2.0317   22.4275 C   0  0  0  0  0  0  0  0  0  0  0  0
   10.4509   -1.8834   23.0503 C   0  0  0  0  0  0  0  0  0  0  0  0
   11.4963   -1.0426   22.3796 C   0  0  0  0  0  0  0  0  0  0  0  0
   12.8528   -0.8944   23.0025 N   0  0  0  0  0  0  0  0  0  0  0  0
   13.1639   -1.5870   24.2961 C   0  0  0  0  0  0  0  0  0  0  0  0
   12.1184   -2.4280   24.9669 C   0  0  0  0  0  0  0  0  0  0  0  0
   12.4294   -3.1206   26.2605 C   0  0  0  0  0  0  0  0  0  0  0  0
   11.3840   -3.9615   26.9312 C   0  0  0  0  0  0  0  0  0  0  0  0
   10.0275   -4.1097   26.3083 C   0  0  0  0  0  0  0  0  0  0  0  0
    9.7165   -3.4170   25.0147 C   0  0  0  0  0  0  0  0  0  0  0  0
   10.7619   -2.5762   24.3440 C   0  0  0  0  0  0  0  0  0  0  0  0
    8.1695   -0.5098   20.5357 O   0  0  0  0  0  0  0  0  0  0  0  0
    8.3305   -0.8152   21.9955 C   0  0  0  0  0  0  0  0  0  0  0  0
    7.7275    0.0959   23.0232 N   0  0  0  0  0  0  0  0  0  0  0  0
    6.9848    1.2829   22.4851 C   0  0  0  0  0  0  0  0  0  0  0  0
    6.2781    2.3666   23.2441 C   0  0  0  0  0  0  0  0  0  0  0  0
    6.1396    2.5312   24.7286 C   0  0  0  0  0  0  0  0  0  0  0  0
    6.6736    1.6526   25.8208 C   0  0  0  0  0  0  0  0  0  0  0  0
    7.4779    0.3924   25.6982 C   0  0  0  0  0  0  0  0  0  0  0  0
    7.9470   -0.3004   24.4531 C   0  0  0  0  0  0  0  0  0  0  0  0
 12 13  2  0  0  0
 13  1  1  0  0  0
  1  2  1  0  0  0
  2  3  2  0  0  0
  3  4  1  0  0  0
  4  5  2  0  0  0
  5  6  1  0  0  0
  6  7  2  0  0  0
  7  8  1  0  0  0
  8  9  2  0  0  0
  9 10  1  0  0  0
 10 11  2  0  0  0
 13 14  1  0  0  0
 14 15  1  0  0  0
 15 16  1  0  0  0
 16 17  2  0  0  0
 17 18  1  0  0  0
 18 19  1  0  0  0
 19 20  1  0  0  0
 11  2  1  0  0  0
 20 14  1  0  0  0
 11  6  1  0  0  0
M  END
> <minimizedAffinity>
-6.36781

> <CNNscore>
0.6490788460

> <CNNaffinity>
5.2772865295

> <CNN_VS>
3.4253749847

> <CNNaffinity_variance>
0.0471517071

$$$$



 20 22  0  0  0  0  0  0  0  0999 V2000
    7.3026   -0.3257   21.2444 C   0  0  0  0  0  0  0  0  0  0  0  0
    6.4086    0.1079   20.1207 C   0  0  0  0  0  0  0  0  0  0  0  0
    6.5984   -0.4649   18.7475 C   0  0  0  0  0  0  0  0  0  0  0  0
    5.7044   -0.0313   17.6238 N   0  0  0  0  0  0  0  0  0  0  0  0
    4.6206    0.9752   17.8733 C   0  0  0  0  0  0  0  0  0  0  0  0
    4.4308    1.5481   19.2465 C   0  0  0  0  0  0  0  0  0  0  0  0
    3.3470    2.5546   19.4960 C   0  0  0  0  0  0  0  0  0  0  0  0
    3.1572    3.1275   20.8692 C   0  0  0  0  0  0  0  0  0  0  0  0
    4.0512    2.6939   21.9929 C   0  0  0  0  0  0  0  0  0  0  0  0
    5.1350    1.6874   21.7435 C   0  0  0  0  0  0  0  0  0  0  0  0
    5.3248    1.1145   20.3702 C   0  0  0  0  0  0  0  0  0  0  0  0
    8.5596    1.9473   21.1843 O   0  0  0  0  0  0  0  0  0  0  0  0
    8.4784    0.5193   21.6362 C   0  0  0  0  0  0  0  0  0  0  0  0
    9.5730   -0.0637   22.4800 N   0  0  0  0  0  0  0  0  0  0  0  0
   10.7018    0.8657   22.8148 C   0  0  0  0  0  0  0  0  0  0  0  0
   11.9304    0.5893   23.6296 C   0  0  0  0  0  0  0  0  0  0  0  0
   12.3338   -0.6847   24.3110 C   0  0  0  0  0  0  0  0  0  0  0  0
   11.6082   -1.9970   24.3457 C   0  0  0  0  0  0  0  0  0  0  0  0
   10.2999   -2.3594   23.7077 C   0  0  0  0  0  0  0  0  0  0  0  0
    9.3942   -1.4990   22.8773 C   0  0  0  0  0  0  0  0  0  0  0  0
 12 13  2  0  0  0
 13  1  1  0  0  0
  1  2  1  0  0  0
  2  3  2  0  0  0
  3  4  1  0  0  0
  4  5  2  0  0  0
  5  6  1  0  0  0
  6  7  2  0  0  0
  7  8  1  0  0  0
  8  9  2  0  0  0
  9 10  1  0  0  0
 10 11  2  0  0  0
 13 14  1  0  0  0
 14 15  1  0  0  0
 15 16  1  0  0  0
 16 17  2  0  0  0
 17 18  1  0  0  0
 18 19  1  0  0  0
 19 20  1  0  0  0
 11  2  1  0  0  0
 20 14  1  0  0  0
 11  6  1  0  0  0
M  END
> <minimizedAffinity>
-7.20342

> <CNNscore>
0.6323833466

> <CNNaffinity>
5.1895365715

> <CNN_VS>
3.2817764282

> <CNNaffinity_variance>
0.2236874998

$$$$



 20 22  0  0  0  0  0  0  0  0999 V2000
    8.1127   -1.6495   25.1313 C   0  0  0  0  0  0  0  0  0  0  0  0
    9.4329   -1.0393   24.7645 C   0  0  0  0  0  0  0  0  0  0  0  0
    9.4786    0.1880   23.9033 C   0  0  0  0  0  0  0  0  0  0  0  0
   10.7988    0.7982   23.5365 N   0  0  0  0  0  0  0  0  0  0  0  0
   12.0735    0.1811   24.0309 C   0  0  0  0  0  0  0  0  0  0  0  0
   12.0279   -1.0463   24.8921 C   0  0  0  0  0  0  0  0  0  0  0  0
   13.3026   -1.6633   25.3865 C   0  0  0  0  0  0  0  0  0  0  0  0
   13.2569   -2.8906   26.2476 C   0  0  0  0  0  0  0  0  0  0  0  0
   11.9367   -3.5008   26.6144 C   0  0  0  0  0  0  0  0  0  0  0  0
   10.6620   -2.8838   26.1201 C   0  0  0  0  0  0  0  0  0  0  0  0
   10.7076   -1.6565   25.2589 C   0  0  0  0  0  0  0  0  0  0  0  0
    6.3388   -0.8620   23.4040 O   0  0  0  0  0  0  0  0  0  0  0  0
    7.1104   -1.9676   24.0616 C   0  0  0  0  0  0  0  0  0  0  0  0
    6.8797   -3.3913   23.6494 N   0  0  0  0  0  0  0  0  0  0  0  0
    5.8569   -3.5994   22.5721 C   0  0  0  0  0  0  0  0  0  0  0  0
    5.4041   -4.8862   21.9484 C   0  0  0  0  0  0  0  0  0  0  0  0
    5.8623   -6.2828   22.2479 C   0  0  0  0  0  0  0  0  0  0  0  0
    6.8864   -6.7375   23.2451 C   0  0  0  0  0  0  0  0  0  0  0  0
    7.7053   -5.9078   24.1891 C   0  0  0  0  0  0  0  0  0  0  0  0
    7.7023   -4.4186   24.3690 C   0  0  0  0  0  0  0  0  0  0  0  0
 12 13  2  0  0  0
 13  1  1  0  0  0
  1  2  1  0  0  0
  2  3  2  0  0  0
  3  4  1  0  0  0
  4  5  2  0  0  0
  5  6  1  0  0  0
  6  7  2  0  0  0
  7  8  1  0  0  0
  8  9  2  0  0  0
  9 10  1  0  0  0
 10 11  2  0  0  0
 13 14  1  0  0  0
 14 15  1  0  0  0
 15 16  1  0  0  0
 16 17  2  0  0  0
 17 18  1  0  0  0
 18 19  1  0  0  0
 19 20  1  0  0  0
 11  2  1  0  0  0
 20 14  1  0  0  0
 11  6  1  0  0  0
M  END
> <minimizedAffinity>
-7.00245

> <CNNscore>
0.6085038185

> <CNNaffinity>
5.2941946983

> <CNN_VS>
3.2215375900

> <CNNaffinity_variance>
0.2013532668

$$$$



 20 22  0  0  0  0  0  0  0  0999 V2000
    9.8429   -1.8531   22.3388 C   0  0  0  0  0  0  0  0  0  0  0  0
    9.7919   -2.6579   23.6036 C   0  0  0  0  0  0  0  0  0  0  0  0
    8.5492   -3.4192   23.9586 C   0  0  0  0  0  0  0  0  0  0  0  0
    8.4982   -4.2239   25.2234 N   0  0  0  0  0  0  0  0  0  0  0  0
    9.6899   -4.2674   26.1333 C   0  0  0  0  0  0  0  0  0  0  0  0
   10.9327   -3.5061   25.7783 C   0  0  0  0  0  0  0  0  0  0  0  0
   12.1245   -3.5496   26.6882 C   0  0  0  0  0  0  0  0  0  0  0  0
   13.3672   -2.7883   26.3332 C   0  0  0  0  0  0  0  0  0  0  0  0
   13.4182   -1.9835   25.0684 C   0  0  0  0  0  0  0  0  0  0  0  0
   12.2265   -1.9400   24.1585 C   0  0  0  0  0  0  0  0  0  0  0  0
   10.9837   -2.7013   24.5135 C   0  0  0  0  0  0  0  0  0  0  0  0
    7.5666   -0.7215   21.8023 O   0  0  0  0  0  0  0  0  0  0  0  0
    9.0079   -0.6144   22.2038 C   0  0  0  0  0  0  0  0  0  0  0  0
    9.6141    0.7315   22.4704 N   0  0  0  0  0  0  0  0  0  0  0  0
    8.6930    1.9041   22.3070 C   0  0  0  0  0  0  0  0  0  0  0  0
    8.9917    3.3616   22.4979 C   0  0  0  0  0  0  0  0  0  0  0  0
   10.2850    4.0066   22.8995 C   0  0  0  0  0  0  0  0  0  0  0  0
   11.5993    3.3533   23.2092 C   0  0  0  0  0  0  0  0  0  0  0  0
   11.9447    1.8936   23.1939 C   0  0  0  0  0  0  0  0  0  0  0  0
   11.0612    0.7268   22.8651 C   0  0  0  0  0  0  0  0  0  0  0  0
 12 13  2  0  0  0
 13  1  1  0  0  0
  1  2  1  0  0  0
  2  3  2  0  0  0
  3  4  1  0  0  0
  4  5  2  0  0  0
  5  6  1  0  0  0
  6  7  2  0  0  0
  7  8  1  0  0  0
  8  9  2  0  0  0
  9 10  1  0  0  0
 10 11  2  0  0  0
 13 14  1  0  0  0
 14 15  1  0  0  0
 15 16  1  0  0  0
 16 17  2  0  0  0
 17 18  1  0  0  0
 18 19  1  0  0  0
 19 20  1  0  0  0
 11  2  1  0  0  0
 20 14  1  0  0  0
 11  6  1  0  0  0
M  END
> <minimizedAffinity>
-6.83367

> <CNNscore>
0.6069305539

> <CNNaffinity>
5.2303748131

> <CNN_VS>
3.1744742393

> <CNNaffinity_variance>
0.0909599364

$$$$



 20 22  0  0  0  0  0  0  0  0999 V2000
   11.5326   -0.9767   22.9358 C   0  0  0  0  0  0  0  0  0  0  0  0
   11.8683   -1.7755   24.1602 C   0  0  0  0  0  0  0  0  0  0  0  0
   13.3022   -2.0129   24.5310 C   0  0  0  0  0  0  0  0  0  0  0  0
   13.6380   -2.8117   25.7554 N   0  0  0  0  0  0  0  0  0  0  0  0
   12.5398   -3.3730   26.6091 C   0  0  0  0  0  0  0  0  0  0  0  0
   11.1058   -3.1356   26.2384 C   0  0  0  0  0  0  0  0  0  0  0  0
   10.0076   -3.6969   27.0921 C   0  0  0  0  0  0  0  0  0  0  0  0
    8.5737   -3.4595   26.7214 C   0  0  0  0  0  0  0  0  0  0  0  0
    8.2380   -2.6607   25.4970 C   0  0  0  0  0  0  0  0  0  0  0  0
    9.3362   -2.0994   24.6433 C   0  0  0  0  0  0  0  0  0  0  0  0
   10.7701   -2.3368   25.0140 C   0  0  0  0  0  0  0  0  0  0  0  0
   13.5277    0.6326   22.5117 O   0  0  0  0  0  0  0  0  0  0  0  0
   12.0676    0.4158   22.7787 C   0  0  0  0  0  0  0  0  0  0  0  0
   11.1426    1.5915   22.8886 N   0  0  0  0  0  0  0  0  0  0  0  0
   11.7791    2.9387   22.7157 C   0  0  0  0  0  0  0  0  0  0  0  0
   11.1336    4.2917   22.7684 C   0  0  0  0  0  0  0  0  0  0  0  0
    9.6922    4.6317   23.0070 C   0  0  0  0  0  0  0  0  0  0  0  0
    8.5403    3.7025   23.2518 C   0  0  0  0  0  0  0  0  0  0  0  0
    8.5454    2.2040   23.3185 C   0  0  0  0  0  0  0  0  0  0  0  0
    9.7035    1.2645   23.1569 C   0  0  0  0  0  0  0  0  0  0  0  0
 12 13  2  0  0  0
 13  1  1  0  0  0
  1  2  1  0  0  0
  2  3  2  0  0  0
  3  4  1  0  0  0
  4  5  2  0  0  0
  5  6  1  0  0  0
  6  7  2  0  0  0
  7  8  1  0  0  0
  8  9  2  0  0  0
  9 10  1  0  0  0
 10 11  2  0  0  0
 13 14  1  0  0  0
 14 15  1  0  0  0
 15 16  1  0  0  0
 16 17  2  0  0  0
 17 18  1  0  0  0
 18 19  1  0  0  0
 19 20  1  0  0  0
 11  2  1  0  0  0
 20 14  1  0  0  0
 11  6  1  0  0  0
M  END
> <minimizedAffinity>
-6.80784

> <CNNscore>
0.5904393196

> <CNNaffinity>
5.2611761093

> <CNN_VS>
3.1064052582

> <CNNaffinity_variance>
0.2040456831

$$$$



 20 22  0  0  0  0  0  0  0  0999 V2000
    9.6297   -1.5968   22.1983 C   0  0  0  0  0  0  0  0  0  0  0  0
   10.8274   -1.5749   23.1010 C   0  0  0  0  0  0  0  0  0  0  0  0
   11.9782   -0.6616   22.7983 C   0  0  0  0  0  0  0  0  0  0  0  0
   13.1759   -0.6397   23.7010 N   0  0  0  0  0  0  0  0  0  0  0  0
   13.2229   -1.5310   24.9066 C   0  0  0  0  0  0  0  0  0  0  0  0
   12.0721   -2.4443   25.2094 C   0  0  0  0  0  0  0  0  0  0  0  0
   12.1190   -3.3356   26.4149 C   0  0  0  0  0  0  0  0  0  0  0  0
   10.9683   -4.2488   26.7177 C   0  0  0  0  0  0  0  0  0  0  0  0
    9.7705   -4.2708   25.8149 C   0  0  0  0  0  0  0  0  0  0  0  0
    9.7236   -3.3795   24.6094 C   0  0  0  0  0  0  0  0  0  0  0  0
   10.8743   -2.4662   24.3066 C   0  0  0  0  0  0  0  0  0  0  0  0
    7.1973   -2.0813   22.9722 O   0  0  0  0  0  0  0  0  0  0  0  0
    8.3038   -1.1059   22.6993 C   0  0  0  0  0  0  0  0  0  0  0  0
    8.0844    0.3603   22.9274 N   0  0  0  0  0  0  0  0  0  0  0  0
    6.7238    0.7444   23.4289 C   0  0  0  0  0  0  0  0  0  0  0  0
    6.1975    2.1117   23.7507 C   0  0  0  0  0  0  0  0  0  0  0  0
    6.9014    3.4325   23.6505 C   0  0  0  0  0  0  0  0  0  0  0  0
    8.3058    3.7122   23.2037 C   0  0  0  0  0  0  0  0  0  0  0  0
    9.3529    2.7402   22.7468 C   0  0  0  0  0  0  0  0  0  0  0  0
    9.2543    1.2484   22.6238 C   0  0  0  0  0  0  0  0  0  0  0  0
 12 13  2  0  0  0
 13  1  1  0  0  0
  1  2  1  0  0  0
  2  3  2  0  0  0
  3  4  1  0  0  0
  4  5  2  0  0  0
  5  6  1  0  0  0
  6  7  2  0  0  0
  7  8  1  0  0  0
  8  9  2  0  0  0
  9 10  1  0  0  0
 10 11  2  0  0  0
 13 14  1  0  0  0
 14 15  1  0  0  0
 15 16  1  0  0  0
 16 17  2  0  0  0
 17 18  1  0  0  0
 18 19  1  0  0  0
 19 20  1  0  0  0
 11  2  1  0  0  0
 20 14  1  0  0  0
 11  6  1  0  0  0
M  END
> <minimizedAffinity>
-6.55854

> <CNNscore>
0.5686321259

> <CNNaffinity>
5.2647428513

> <CNN_VS>
2.9937019348

> <CNNaffinity_variance>
0.2074733973

$$$$



 20 22  0  0  0  0  0  0  0  0999 V2000
    8.8994   -2.6798   23.1073 C   0  0  0  0  0  0  0  0  0  0  0  0
   10.1550   -1.8808   23.2945 C   0  0  0  0  0  0  0  0  0  0  0  0
   10.4520   -0.7263   22.3842 C   0  0  0  0  0  0  0  0  0  0  0  0
   11.7077    0.0727   22.5714 N   0  0  0  0  0  0  0  0  0  0  0  0
   12.6662   -0.2828   23.6689 C   0  0  0  0  0  0  0  0  0  0  0  0
   12.3692   -1.4374   24.5794 C   0  0  0  0  0  0  0  0  0  0  0  0
   13.3278   -1.7930   25.6769 C   0  0  0  0  0  0  0  0  0  0  0  0
   13.0307   -2.9475   26.5873 C   0  0  0  0  0  0  0  0  0  0  0  0
   11.7751   -3.7465   26.4000 C   0  0  0  0  0  0  0  0  0  0  0  0
   10.8165   -3.3909   25.3025 C   0  0  0  0  0  0  0  0  0  0  0  0
   11.1136   -2.2364   24.3921 C   0  0  0  0  0  0  0  0  0  0  0  0
    7.4679   -1.2282   24.7179 O   0  0  0  0  0  0  0  0  0  0  0  0
    7.7782   -2.5576   24.0962 C   0  0  0  0  0  0  0  0  0  0  0  0
    6.9673   -3.7649   24.4636 N   0  0  0  0  0  0  0  0  0  0  0  0
    5.8709   -3.5336   25.4608 C   0  0  0  0  0  0  0  0  0  0  0  0
    4.8964   -4.5241   26.0258 C   0  0  0  0  0  0  0  0  0  0  0  0
    4.7777   -5.9906   25.7333 C   0  0  0  0  0  0  0  0  0  0  0  0
    5.6041   -6.8286   24.8035 C   0  0  0  0  0  0  0  0  0  0  0  0
    6.7534   -6.4072   23.9365 C   0  0  0  0  0  0  0  0  0  0  0  0
    7.3601   -5.0437   23.7853 C   0  0  0  0  0  0  0  0  0  0  0  0
 12 13  2  0  0  0
 13  1  1  0  0  0
  1  2  1  0  0  0
  2  3  2  0  0  0
  3  4  1  0  0  0
  4  5  2  0  0  0
  5  6  1  0  0  0
  6  7  2  0  0  0
  7  8  1  0  0  0
  8  9  2  0  0  0
  9 10  1  0  0  0
 10 11  2  0  0  0
 13 14  1  0  0  0
 14 15  1  0  0  0
 15 16  1  0  0  0
 16 17  2  0  0  0
 17 18  1  0  0  0
 18 19  1  0  0  0
 19 20  1  0  0  0
 11  2  1  0  0  0
 20 14  1  0  0  0
 11  6  1  0  0  0
M  END
> <minimizedAffinity>
-6.68959

> <CNNscore>
0.5685505867

> <CNNaffinity>
5.2857480049

> <CNN_VS>
3.0052151680

> <CNNaffinity_variance>
0.0706316605

$$$$



 20 22  0  0  0  0  0  0  0  0999 V2000
   11.1162   -1.2232   22.7288 C   0  0  0  0  0  0  0  0  0  0  0  0
   11.7333   -1.8631   23.9370 C   0  0  0  0  0  0  0  0  0  0  0  0
   13.2238   -1.8666   24.1050 C   0  0  0  0  0  0  0  0  0  0  0  0
   13.8409   -2.5064   25.3132 N   0  0  0  0  0  0  0  0  0  0  0  0
   12.9674   -3.1427   26.3535 C   0  0  0  0  0  0  0  0  0  0  0  0
   11.4768   -3.1392   26.1855 C   0  0  0  0  0  0  0  0  0  0  0  0
   10.6033   -3.7755   27.2258 C   0  0  0  0  0  0  0  0  0  0  0  0
    9.1128   -3.7720   27.0578 C   0  0  0  0  0  0  0  0  0  0  0  0
    8.4958   -3.1321   25.8495 C   0  0  0  0  0  0  0  0  0  0  0  0
    9.3692   -2.4958   24.8093 C   0  0  0  0  0  0  0  0  0  0  0  0
   10.8597   -2.4994   24.9773 C   0  0  0  0  0  0  0  0  0  0  0  0
   11.3999    1.2396   23.5061 O   0  0  0  0  0  0  0  0  0  0  0  0
   10.5981    0.1823   22.8066 C   0  0  0  0  0  0  0  0  0  0  0  0
    9.2782    0.5305   22.1849 N   0  0  0  0  0  0  0  0  0  0  0  0
    8.8531    1.9627   22.3195 C   0  0  0  0  0  0  0  0  0  0  0  0
    7.6027    2.6186   21.8133 C   0  0  0  0  0  0  0  0  0  0  0  0
    6.4685    2.0044   21.0474 C   0  0  0  0  0  0  0  0  0  0  0  0
    6.3047    0.5825   20.5986 C   0  0  0  0  0  0  0  0  0  0  0  0
    7.2346   -0.5763   20.8049 C   0  0  0  0  0  0  0  0  0  0  0  0
    8.5579   -0.5994   21.5108 C   0  0  0  0  0  0  0  0  0  0  0  0
 12 13  2  0  0  0
 13  1  1  0  0  0
  1  2  1  0  0  0
  2  3  2  0  0  0
  3  4  1  0  0  0
  4  5  2  0  0  0
  5  6  1  0  0  0
  6  7  2  0  0  0
  7  8  1  0  0  0
  8  9  2  0  0  0
  9 10  1  0  0  0
 10 11  2  0  0  0
 13 14  1  0  0  0
 14 15  1  0  0  0
 15 16  1  0  0  0
 16 17  2  0  0  0
 17 18  1  0  0  0
 18 19  1  0  0  0
 19 20  1  0  0  0
 11  2  1  0  0  0
 20 14  1  0  0  0
 11  6  1  0  0  0
M  END
> <minimizedAffinity>
-6.83685

> <CNNscore>
0.5561839342

> <CNNaffinity>
5.1417655945

> <CNN_VS>
2.8597674370

> <CNNaffinity_variance>
0.3069650233

$$$$
