
     RDKit          2D

 38 42  0  0  0  0  0  0  0  0999 V2000
   -3.4620    3.6981    0.0000 C   0  0  0  0  0  0  0  0  0  0  0  0
   -3.9255    2.2715    0.0000 C   0  0  0  0  0  0  0  0  0  0  0  0
   -2.9218    1.1568    0.0000 S   0  0  0  0  0  0  0  0  0  0  0  0
   -2.1248    2.0737    0.0000 O   0  0  0  0  0  0  0  0  0  0  0  0
   -4.0366    0.1531    0.0000 O   0  0  0  0  0  0  0  0  0  0  0  0
   -1.9182    0.0420    0.0000 N   0  0  0  0  0  0  0  0  0  0  0  0
   -2.3817   -1.3846    0.0000 C   0  0  0  0  0  0  0  0  0  0  0  0
   -3.8083   -1.8481    0.0000 C   0  0  0  0  0  0  0  0  0  0  0  0
   -3.8083   -3.3481    0.0000 N   0  0  0  0  0  0  0  0  0  0  0  0
   -5.0218   -4.2298    0.0000 C   0  0  0  0  0  0  0  0  0  0  0  0
   -4.8650   -5.7215    0.0000 C   0  0  0  0  0  0  0  0  0  0  0  0
   -6.0785   -6.6032    0.0000 N   0  0  0  0  0  0  0  0  0  0  0  0
   -7.4488   -5.9931    0.0000 C   0  0  0  0  0  0  0  0  0  0  0  0
   -7.6056   -4.5013    0.0000 C   0  0  0  0  0  0  0  0  0  0  0  0
   -8.9760   -3.8912    0.0000 C   0  0  0  0  0  0  0  0  0  0  0  0
   -9.1327   -2.3994    0.0000 C   0  0  0  0  0  0  0  0  0  0  0  0
   -7.9192   -1.5178    0.0000 C   0  0  0  0  0  0  0  0  0  0  0  0
   -6.5489   -2.1279    0.0000 C   0  0  0  0  0  0  0  0  0  0  0  0
   -6.3921   -3.6196    0.0000 C   0  0  0  0  0  0  0  0  0  0  0  0
   -2.3817   -3.8116    0.0000 C   0  0  0  0  0  0  0  0  0  0  0  0
   -1.9182   -5.2382    0.0000 O   0  0  0  0  0  0  0  0  0  0  0  0
   -1.5000   -2.5981    0.0000 C   0  0  0  0  0  0  0  0  0  0  0  0
   -0.7500   -3.8971    0.0000 C   0  0  0  0  0  0  0  0  0  0  0  0
    0.7500   -3.8971    0.0000 N   0  0  0  0  0  0  0  0  0  0  0  0
    1.5000   -5.1962    0.0000 C   0  0  0  0  0  0  0  0  0  0  0  0
    0.7500   -6.4952    0.0000 C   0  0  0  0  0  0  0  0  0  0  0  0
   -0.7500   -6.4952    0.0000 O   0  0  0  0  0  0  0  0  0  0  0  0
    1.5000   -7.7942    0.0000 N   0  0  0  0  0  0  0  0  0  0  0  0
    0.7500   -9.0933    0.0000 C   0  0  0  0  0  0  0  0  0  0  0  0
    1.5000   -2.5981    0.0000 C   0  0  0  0  0  0  0  0  0  0  0  0
    3.0000   -2.5981    0.0000 O   0  0  0  0  0  0  0  0  0  0  0  0
    0.7500   -1.2990    0.0000 C   0  0  0  0  0  0  0  0  0  0  0  0
    1.5000    0.0000    0.0000 C   0  0  0  0  0  0  0  0  0  0  0  0
    0.7500    1.2990    0.0000 C   0  0  0  0  0  0  0  0  0  0  0  0
   -0.7500    1.2990    0.0000 C   0  0  0  0  0  0  0  0  0  0  0  0
   -1.2247    2.4175    0.0000 Cl  0  0  0  0  0  0  0  0  0  0  0  0
   -1.5000    0.0000    0.0000 C   0  0  0  0  0  0  0  0  0  0  0  0
   -0.7500   -1.2990    0.0000 C   0  0  0  0  0  0  0  0  0  0  0  0
  1  2  1  0
  2  3  1  0
  3  4  2  0
  3  5  2  0
  3  6  1  0
  7  6  1  6
  7  8  1  0
  8  9  1  0
  9 10  1  0
 10 11  2  0
 11 12  1  0
 12 13  2  0
 13 14  1  0
 14 15  2  0
 15 16  1  0
 16 17  2  0
 17 18  1  0
 18 19  2  0
  9 20  1  0
 20 21  2  0
 20 22  1  0
 22 23  1  6
 23 24  1  0
 24 25  1  0
 25 26  1  0
 26 27  2  0
 26 28  1  0
 28 29  1  0
 24 30  1  0
 30 31  2  0
 30 32  1  0
 32 33  2  0
 33 34  1  0
 34 35  2  0
 35 36  1  0
 35 37  1  0
 37 38  2  0
 22  7  1  0
 38 32  1  0
 19 10  1  0
 38 22  1  0
 19 14  1  0
M  END
$$$$
