


 39 44  0  0  0  0  0  0  0  0999 V2000
   -7.6271   -1.6495  -24.4875 N   0  0  0  0  0  0  0  0  0  0  0  0
   -7.9685   -0.1928  -24.5947 C   0  0  0  0  0  0  0  0  0  0  0  0
   -9.3512    0.2803  -24.2567 C   0  0  0  0  0  0  0  0  0  0  0  0
  -10.6841    0.8981  -23.9539 C   0  0  0  0  0  0  0  0  0  0  0  0
  -11.7958    0.5776  -23.5825 O   0  0  0  0  0  0  0  0  0  0  0  0
  -10.5764    2.3745  -24.1956 N   0  0  0  0  0  0  0  0  0  0  0  0
   -9.1769    2.6693  -24.6477 C   0  0  0  0  0  0  0  0  0  0  0  0
   -8.4197    1.3750  -24.6855 C   0  0  0  0  0  0  0  0  0  0  0  0
   -6.9832    1.2052  -25.0824 C   0  0  0  0  0  0  0  0  0  0  0  0
  -10.3926   -0.7034  -23.8115 C   0  0  0  0  0  0  0  0  0  0  0  0
  -11.7753   -0.2303  -23.4735 C   0  0  0  0  0  0  0  0  0  0  0  0
  -12.8165   -1.2139  -23.0284 C   0  0  0  0  0  0  0  0  0  0  0  0
  -14.1993   -0.7408  -22.6904 Cl  0  0  0  0  0  0  0  0  0  0  0  0
  -12.4751   -2.6706  -22.9212 C   0  0  0  0  0  0  0  0  0  0  0  0
  -11.0924   -3.1436  -23.2592 C   0  0  0  0  0  0  0  0  0  0  0  0
  -10.0511   -2.1600  -23.7043 C   0  0  0  0  0  0  0  0  0  0  0  0
   -8.6683   -2.6331  -24.0423 C   0  0  0  0  0  0  0  0  0  0  0  0
   -8.3269   -4.0898  -23.9351 O   0  0  0  0  0  0  0  0  0  0  0  0
  -11.6753    3.3797  -24.0165 C   0  0  0  0  0  0  0  0  0  0  0  0
  -12.4490    3.4244  -22.7322 C   0  0  0  0  0  0  0  0  0  0  0  0
  -13.5478    4.4296  -22.5531 N   0  0  0  0  0  0  0  0  0  0  0  0
  -13.8730    5.3901  -23.6584 C   0  0  0  0  0  0  0  0  0  0  0  0
  -13.0993    5.3455  -24.9427 C   0  0  0  0  0  0  0  0  0  0  0  0
  -13.4245    6.3061  -26.0480 C   0  0  0  0  0  0  0  0  0  0  0  0
  -12.6507    6.2614  -27.3322 C   0  0  0  0  0  0  0  0  0  0  0  0
  -11.5519    5.2562  -27.5113 C   0  0  0  0  0  0  0  0  0  0  0  0
  -11.2267    4.2957  -26.4061 C   0  0  0  0  0  0  0  0  0  0  0  0
  -12.0004    4.3403  -25.1218 C   0  0  0  0  0  0  0  0  0  0  0  0
   -6.2443   -2.1225  -24.8255 C   0  0  0  0  0  0  0  0  0  0  0  0
   -5.9656   -2.7251  -26.1706 C   0  0  0  0  0  0  0  0  0  0  0  0
   -9.7581   -5.8527  -27.8543 C   0  0  0  0  0  0  0  0  0  0  0  0
   -8.3630   -5.6651  -27.3362 C   0  0  0  0  0  0  0  0  0  0  0  0
   -7.8619   -4.2889  -27.0125 C   0  0  0  0  0  0  0  0  0  0  0  0
   -6.4668   -4.1013  -26.4943 N   0  0  0  0  0  0  0  0  0  0  0  0
   -5.5728   -5.2900  -26.2998 C   0  0  0  0  0  0  0  0  0  0  0  0
   -4.1777   -5.1024  -25.7816 C   0  0  0  0  0  0  0  0  0  0  0  0
   -6.0740   -6.6663  -26.6235 C   0  0  0  0  0  0  0  0  0  0  0  0
   -7.4691   -6.8539  -27.1417 O   0  0  0  0  0  0  0  0  0  0  0  0
   -7.0747   -3.2930  -26.6265 H   0  0  0  0  0  0  0  0  0  0  0  0
 32 31  1  0  0  0
 32 33  1  0  0  0
 33 34  1  0  0  0
 34 30  1  0  0  0
 30 29  1  0  0  0
 29  1  1  0  0  0
  1  2  1  0  0  0
  3  2  1  0  0  0
  3  4  1  0  0  0
  4  5  2  0  0  0
  4  6  1  0  0  0
  6 19  1  0  0  0
 19 20  2  0  0  0
 20 21  1  0  0  0
 21 22  2  0  0  0
 22 23  1  0  0  0
 23 24  2  0  0  0
 24 25  1  0  0  0
 25 26  2  0  0  0
 26 27  1  0  0  0
 27 28  2  0  0  0
  6  7  1  0  0  0
  7  8  1  0  0  0
  8  9  1  0  0  0
  3 10  1  0  0  0
 10 11  2  0  0  0
 11 12  1  0  0  0
 12 13  1  0  0  0
 12 14  2  0  0  0
 14 15  1  0  0  0
 15 16  2  0  0  0
 16 17  1  0  0  0
 17 18  2  0  0  0
 34 35  1  0  0  0
 35 36  1  0  0  0
 35 37  1  0  0  0
 37 38  1  0  0  0
 38 32  1  0  0  0
 17  1  1  0  0  0
  8  3  1  0  0  0
 16 10  1  0  0  0
 28 19  1  0  0  0
 28 23  1  0  0  0
 34 39  1  0  0  0
M  CHG 1  34   1
M  END
> <minimizedAffinity>
-7.76474

> <CNNscore>
0.8207346201

> <CNNaffinity>
7.0278549194

> <CNN_VS>
5.7680039406

> <CNNaffinity_variance>
0.0615812838

$$$$



 39 44  0  0  0  0  0  0  0  0999 V2000
   -7.5902   -1.6598  -24.0008 N   0  0  0  0  0  0  0  0  0  0  0  0
   -7.9140   -0.2009  -24.1303 C   0  0  0  0  0  0  0  0  0  0  0  0
   -9.3203    0.2767  -23.9204 C   0  0  0  0  0  0  0  0  0  0  0  0
  -10.6732    0.8990  -23.7399 C   0  0  0  0  0  0  0  0  0  0  0  0
  -11.8160    0.5817  -23.4764 O   0  0  0  0  0  0  0  0  0  0  0  0
  -10.5371    2.3764  -23.9610 N   0  0  0  0  0  0  0  0  0  0  0  0
   -9.1001    2.6672  -24.2782 C   0  0  0  0  0  0  0  0  0  0  0  0
   -8.3481    1.3695  -24.2530 C   0  0  0  0  0  0  0  0  0  0  0  0
   -6.8814    1.1953  -24.5146 C   0  0  0  0  0  0  0  0  0  0  0  0
  -10.4029   -0.7046  -23.5810 C   0  0  0  0  0  0  0  0  0  0  0  0
  -11.8092   -0.2270  -23.3711 C   0  0  0  0  0  0  0  0  0  0  0  0
  -12.8917   -1.2082  -23.0318 C   0  0  0  0  0  0  0  0  0  0  0  0
  -14.2982   -0.7306  -22.8219 Cl  0  0  0  0  0  0  0  0  0  0  0  0
  -12.5679   -2.6671  -22.9023 C   0  0  0  0  0  0  0  0  0  0  0  0
  -11.1616   -3.1447  -23.1122 C   0  0  0  0  0  0  0  0  0  0  0  0
  -10.0791   -2.1635  -23.4516 C   0  0  0  0  0  0  0  0  0  0  0  0
   -8.6727   -2.6411  -23.6615 C   0  0  0  0  0  0  0  0  0  0  0  0
   -8.3489   -4.1000  -23.5320 O   0  0  0  0  0  0  0  0  0  0  0  0
  -11.6437    3.3857  -23.8794 C   0  0  0  0  0  0  0  0  0  0  0  0
  -12.4917    3.4708  -22.6450 C   0  0  0  0  0  0  0  0  0  0  0  0
  -13.5983    4.4801  -22.5633 N   0  0  0  0  0  0  0  0  0  0  0  0
  -13.8570    5.4043  -23.7161 C   0  0  0  0  0  0  0  0  0  0  0  0
  -13.0090    5.3193  -24.9505 C   0  0  0  0  0  0  0  0  0  0  0  0
  -13.2677    6.2436  -26.1033 C   0  0  0  0  0  0  0  0  0  0  0  0
  -12.4197    6.1584  -27.3376 C   0  0  0  0  0  0  0  0  0  0  0  0
  -11.3130    5.1491  -27.4193 C   0  0  0  0  0  0  0  0  0  0  0  0
  -11.0544    4.2249  -26.2665 C   0  0  0  0  0  0  0  0  0  0  0  0
  -11.9024    4.3099  -25.0321 C   0  0  0  0  0  0  0  0  0  0  0  0
   -6.1838   -2.1374  -24.2107 C   0  0  0  0  0  0  0  0  0  0  0  0
   -5.7872   -2.7489  -25.5217 C   0  0  0  0  0  0  0  0  0  0  0  0
   -4.7988   -7.8294  -25.0621 C   0  0  0  0  0  0  0  0  0  0  0  0
   -5.6502   -6.7145  -25.5932 C   0  0  0  0  0  0  0  0  0  0  0  0
   -5.2930   -5.2892  -25.2919 C   0  0  0  0  0  0  0  0  0  0  0  0
   -6.1444   -4.1742  -25.8230 N   0  0  0  0  0  0  0  0  0  0  0  0
   -7.3530   -4.4846  -26.6554 C   0  0  0  0  0  0  0  0  0  0  0  0
   -8.2044   -3.3697  -27.1865 C   0  0  0  0  0  0  0  0  0  0  0  0
   -7.7102   -5.9100  -26.9567 C   0  0  0  0  0  0  0  0  0  0  0  0
   -6.8588   -7.0249  -26.4256 O   0  0  0  0  0  0  0  0  0  0  0  0
   -5.3225   -3.9631  -25.2570 H   0  0  0  0  0  0  0  0  0  0  0  0
 32 31  1  0  0  0
 32 33  1  0  0  0
 33 34  1  0  0  0
 34 30  1  0  0  0
 30 29  1  0  0  0
 29  1  1  0  0  0
  1  2  1  0  0  0
  3  2  1  0  0  0
  3  4  1  0  0  0
  4  5  2  0  0  0
  4  6  1  0  0  0
  6 19  1  0  0  0
 19 20  2  0  0  0
 20 21  1  0  0  0
 21 22  2  0  0  0
 22 23  1  0  0  0
 23 24  2  0  0  0
 24 25  1  0  0  0
 25 26  2  0  0  0
 26 27  1  0  0  0
 27 28  2  0  0  0
  6  7  1  0  0  0
  7  8  1  0  0  0
  8  9  1  0  0  0
  3 10  1  0  0  0
 10 11  2  0  0  0
 11 12  1  0  0  0
 12 13  1  0  0  0
 12 14  2  0  0  0
 14 15  1  0  0  0
 15 16  2  0  0  0
 16 17  1  0  0  0
 17 18  2  0  0  0
 34 35  1  0  0  0
 35 36  1  0  0  0
 35 37  1  0  0  0
 37 38  1  0  0  0
 38 32  1  0  0  0
 17  1  1  0  0  0
  8  3  1  0  0  0
 16 10  1  0  0  0
 28 19  1  0  0  0
 28 23  1  0  0  0
 34 39  1  0  0  0
M  CHG 1  34   1
M  END
> <minimizedAffinity>
-7.89640

> <CNNscore>
0.7841579914

> <CNNaffinity>
6.9898047447

> <CNN_VS>
5.4811110497

> <CNNaffinity_variance>
0.0734990388

$$$$



 39 44  0  0  0  0  0  0  0  0999 V2000
   -7.1241   -0.8799  -22.9149 N   0  0  0  0  0  0  0  0  0  0  0  0
   -7.5679    0.5347  -23.1429 C   0  0  0  0  0  0  0  0  0  0  0  0
   -9.0292    0.8527  -23.2593 C   0  0  0  0  0  0  0  0  0  0  0  0
  -10.4478    1.3205  -23.3955 C   0  0  0  0  0  0  0  0  0  0  0  0
  -11.5791    0.8774  -23.3849 O   0  0  0  0  0  0  0  0  0  0  0  0
  -10.4278    2.8048  -23.6115 N   0  0  0  0  0  0  0  0  0  0  0  0
   -8.9967    3.2543  -23.6087 C   0  0  0  0  0  0  0  0  0  0  0  0
   -8.1323    2.0478  -23.3910 C   0  0  0  0  0  0  0  0  0  0  0  0
   -6.6341    2.0382  -23.3179 C   0  0  0  0  0  0  0  0  0  0  0  0
  -10.0466   -0.2439  -23.1477 C   0  0  0  0  0  0  0  0  0  0  0  0
  -11.5079    0.0741  -23.2641 C   0  0  0  0  0  0  0  0  0  0  0  0
  -12.5252   -1.0224  -23.1525 C   0  0  0  0  0  0  0  0  0  0  0  0
  -13.9866   -0.7044  -23.2689 Cl  0  0  0  0  0  0  0  0  0  0  0  0
  -12.0814   -2.4370  -22.9245 C   0  0  0  0  0  0  0  0  0  0  0  0
  -10.6201   -2.7550  -22.8081 C   0  0  0  0  0  0  0  0  0  0  0  0
   -9.6028   -1.6585  -22.9197 C   0  0  0  0  0  0  0  0  0  0  0  0
   -8.1414   -1.9765  -22.8033 C   0  0  0  0  0  0  0  0  0  0  0  0
   -7.6976   -3.3910  -22.5753 O   0  0  0  0  0  0  0  0  0  0  0  0
  -11.6280    3.6849  -23.7976 C   0  0  0  0  0  0  0  0  0  0  0  0
  -12.5690    3.9218  -22.6536 C   0  0  0  0  0  0  0  0  0  0  0  0
  -13.7693    4.8020  -22.8397 N   0  0  0  0  0  0  0  0  0  0  0  0
  -14.0286    5.4453  -24.1697 C   0  0  0  0  0  0  0  0  0  0  0  0
  -13.0876    5.2084  -25.3136 C   0  0  0  0  0  0  0  0  0  0  0  0
  -13.3469    5.8518  -26.6437 C   0  0  0  0  0  0  0  0  0  0  0  0
  -12.4059    5.6149  -27.7875 C   0  0  0  0  0  0  0  0  0  0  0  0
  -11.2057    4.7347  -27.6014 C   0  0  0  0  0  0  0  0  0  0  0  0
  -10.9464    4.0914  -26.2715 C   0  0  0  0  0  0  0  0  0  0  0  0
  -11.8873    4.3283  -25.1275 C   0  0  0  0  0  0  0  0  0  0  0  0
   -5.6627   -1.1979  -22.7985 C   0  0  0  0  0  0  0  0  0  0  0  0
   -4.9490   -0.9793  -21.4974 C   0  0  0  0  0  0  0  0  0  0  0  0
   -1.4921    2.3286  -23.5241 C   0  0  0  0  0  0  0  0  0  0  0  0
   -2.2912    1.8412  -22.3519 C   0  0  0  0  0  0  0  0  0  0  0  0
   -3.2205    0.6746  -22.5108 C   0  0  0  0  0  0  0  0  0  0  0  0
   -4.0196    0.1873  -21.3386 N   0  0  0  0  0  0  0  0  0  0  0  0
   -3.8893    0.8665  -20.0076 C   0  0  0  0  0  0  0  0  0  0  0  0
   -4.6883    0.3791  -18.8354 C   0  0  0  0  0  0  0  0  0  0  0  0
   -2.9598    2.0331  -19.8487 C   0  0  0  0  0  0  0  0  0  0  0  0
   -2.1608    2.5205  -21.0208 O   0  0  0  0  0  0  0  0  0  0  0  0
   -4.1082   -0.2746  -22.2437 H   0  0  0  0  0  0  0  0  0  0  0  0
 32 31  1  0  0  0
 32 33  1  0  0  0
 33 34  1  0  0  0
 34 30  1  0  0  0
 30 29  1  0  0  0
 29  1  1  0  0  0
  1  2  1  0  0  0
  3  2  1  0  0  0
  3  4  1  0  0  0
  4  5  2  0  0  0
  4  6  1  0  0  0
  6 19  1  0  0  0
 19 20  2  0  0  0
 20 21  1  0  0  0
 21 22  2  0  0  0
 22 23  1  0  0  0
 23 24  2  0  0  0
 24 25  1  0  0  0
 25 26  2  0  0  0
 26 27  1  0  0  0
 27 28  2  0  0  0
  6  7  1  0  0  0
  7  8  1  0  0  0
  8  9  1  0  0  0
  3 10  1  0  0  0
 10 11  2  0  0  0
 11 12  1  0  0  0
 12 13  1  0  0  0
 12 14  2  0  0  0
 14 15  1  0  0  0
 15 16  2  0  0  0
 16 17  1  0  0  0
 17 18  2  0  0  0
 34 35  1  0  0  0
 35 36  1  0  0  0
 35 37  1  0  0  0
 37 38  1  0  0  0
 38 32  1  0  0  0
 17  1  1  0  0  0
  8  3  1  0  0  0
 16 10  1  0  0  0
 28 19  1  0  0  0
 28 23  1  0  0  0
 34 39  1  0  0  0
M  CHG 1  34   1
M  END
> <minimizedAffinity>
-8.70045

> <CNNscore>
0.6761648059

> <CNNaffinity>
6.7990736961

> <CNN_VS>
4.5972943306

> <CNNaffinity_variance>
0.0828320608

$$$$



 39 44  0  0  0  0  0  0  0  0999 V2000
   -7.1982   -0.9240  -23.1786 N   0  0  0  0  0  0  0  0  0  0  0  0
   -7.6307    0.4996  -23.3695 C   0  0  0  0  0  0  0  0  0  0  0  0
   -9.0908    0.8408  -23.4099 C   0  0  0  0  0  0  0  0  0  0  0  0
  -10.5070    1.3314  -23.4706 C   0  0  0  0  0  0  0  0  0  0  0  0
  -11.6432    0.9053  -23.4084 O   0  0  0  0  0  0  0  0  0  0  0  0
  -10.4746    2.8175  -23.6719 N   0  0  0  0  0  0  0  0  0  0  0  0
   -9.0383    3.2454  -23.7355 C   0  0  0  0  0  0  0  0  0  0  0  0
   -8.1831    2.0237  -23.5736 C   0  0  0  0  0  0  0  0  0  0  0  0
   -6.6835    1.9907  -23.5751 C   0  0  0  0  0  0  0  0  0  0  0  0
  -10.1185   -0.2415  -23.2593 C   0  0  0  0  0  0  0  0  0  0  0  0
  -11.5785    0.0997  -23.2997 C   0  0  0  0  0  0  0  0  0  0  0  0
  -12.6061   -0.9826  -23.1491 C   0  0  0  0  0  0  0  0  0  0  0  0
  -14.0663   -0.6414  -23.1895 Cl  0  0  0  0  0  0  0  0  0  0  0  0
  -12.1736   -2.4061  -22.9582 C   0  0  0  0  0  0  0  0  0  0  0  0
  -10.7135   -2.7474  -22.9178 C   0  0  0  0  0  0  0  0  0  0  0  0
   -9.6859   -1.6651  -23.0684 C   0  0  0  0  0  0  0  0  0  0  0  0
   -8.2258   -2.0063  -23.0280 C   0  0  0  0  0  0  0  0  0  0  0  0
   -7.7932   -3.4298  -22.8371 O   0  0  0  0  0  0  0  0  0  0  0  0
  -11.6687    3.7177  -23.7890 C   0  0  0  0  0  0  0  0  0  0  0  0
  -12.5536    3.9482  -22.5999 C   0  0  0  0  0  0  0  0  0  0  0  0
  -13.7478    4.8484  -22.7170 N   0  0  0  0  0  0  0  0  0  0  0  0
  -14.0570    5.5180  -24.0231 C   0  0  0  0  0  0  0  0  0  0  0  0
  -13.1721    5.2874  -25.2122 C   0  0  0  0  0  0  0  0  0  0  0  0
  -13.4814    5.9570  -26.5183 C   0  0  0  0  0  0  0  0  0  0  0  0
  -12.5965    5.7264  -27.7073 C   0  0  0  0  0  0  0  0  0  0  0  0
  -11.4023    4.8262  -27.5903 C   0  0  0  0  0  0  0  0  0  0  0  0
  -11.0931    4.1567  -26.2841 C   0  0  0  0  0  0  0  0  0  0  0  0
  -11.9780    4.3872  -25.0951 C   0  0  0  0  0  0  0  0  0  0  0  0
   -5.7380   -1.2652  -23.1382 C   0  0  0  0  0  0  0  0  0  0  0  0
   -5.0936   -1.6510  -21.8398 C   0  0  0  0  0  0  0  0  0  0  0  0
   -2.6978    2.8053  -20.6563 C   0  0  0  0  0  0  0  0  0  0  0  0
   -3.5390    1.6336  -20.2447 C   0  0  0  0  0  0  0  0  0  0  0  0
   -3.8957    0.5772  -21.2480 C   0  0  0  0  0  0  0  0  0  0  0  0
   -4.7369   -0.5946  -20.8365 N   0  0  0  0  0  0  0  0  0  0  0  0
   -5.2214   -0.7099  -19.4216 C   0  0  0  0  0  0  0  0  0  0  0  0
   -6.0626   -1.8817  -19.0100 C   0  0  0  0  0  0  0  0  0  0  0  0
   -4.8647    0.3465  -18.4182 C   0  0  0  0  0  0  0  0  0  0  0  0
   -4.0235    1.5183  -18.8297 O   0  0  0  0  0  0  0  0  0  0  0  0
   -4.4075   -0.5162  -21.7986 H   0  0  0  0  0  0  0  0  0  0  0  0
 32 31  1  0  0  0
 32 33  1  0  0  0
 33 34  1  0  0  0
 34 30  1  0  0  0
 30 29  1  0  0  0
 29  1  1  0  0  0
  1  2  1  0  0  0
  3  2  1  0  0  0
  3  4  1  0  0  0
  4  5  2  0  0  0
  4  6  1  0  0  0
  6 19  1  0  0  0
 19 20  2  0  0  0
 20 21  1  0  0  0
 21 22  2  0  0  0
 22 23  1  0  0  0
 23 24  2  0  0  0
 24 25  1  0  0  0
 25 26  2  0  0  0
 26 27  1  0  0  0
 27 28  2  0  0  0
  6  7  1  0  0  0
  7  8  1  0  0  0
  8  9  1  0  0  0
  3 10  1  0  0  0
 10 11  2  0  0  0
 11 12  1  0  0  0
 12 13  1  0  0  0
 12 14  2  0  0  0
 14 15  1  0  0  0
 15 16  2  0  0  0
 16 17  1  0  0  0
 17 18  2  0  0  0
 34 35  1  0  0  0
 35 36  1  0  0  0
 35 37  1  0  0  0
 37 38  1  0  0  0
 38 32  1  0  0  0
 17  1  1  0  0  0
  8  3  1  0  0  0
 16 10  1  0  0  0
 28 19  1  0  0  0
 28 23  1  0  0  0
 34 39  1  0  0  0
M  CHG 1  34   1
M  END
> <minimizedAffinity>
-9.23512

> <CNNscore>
0.5475437641

> <CNNaffinity>
6.7771997452

> <CNN_VS>
3.7108135223

> <CNNaffinity_variance>
0.0904345363

$$$$



 39 44  0  0  0  0  0  0  0  0999 V2000
   -9.5158    2.9366  -24.3695 N   0  0  0  0  0  0  0  0  0  0  0  0
   -8.5511    1.7942  -24.4896 C   0  0  0  0  0  0  0  0  0  0  0  0
   -9.0089    0.3935  -24.2101 C   0  0  0  0  0  0  0  0  0  0  0  0
   -9.3201   -1.0530  -23.9634 C   0  0  0  0  0  0  0  0  0  0  0  0
  -10.2518   -1.7626  -23.6398 O   0  0  0  0  0  0  0  0  0  0  0  0
   -8.0671   -1.8435  -24.1988 N   0  0  0  0  0  0  0  0  0  0  0  0
   -6.9815   -0.8855  -24.5909 C   0  0  0  0  0  0  0  0  0  0  0  0
   -7.5636    0.4970  -24.5979 C   0  0  0  0  0  0  0  0  0  0  0  0
   -6.8292    1.7611  -24.9337 C   0  0  0  0  0  0  0  0  0  0  0  0
  -10.4314    0.1349  -23.8104 C   0  0  0  0  0  0  0  0  0  0  0  0
  -10.8892   -1.2658  -23.5309 C   0  0  0  0  0  0  0  0  0  0  0  0
  -12.3116   -1.5243  -23.1312 C   0  0  0  0  0  0  0  0  0  0  0  0
  -12.7695   -2.9251  -22.8517 Cl  0  0  0  0  0  0  0  0  0  0  0  0
  -13.2763   -0.3819  -23.0111 C   0  0  0  0  0  0  0  0  0  0  0  0
  -12.8186    1.0188  -23.2907 C   0  0  0  0  0  0  0  0  0  0  0  0
  -11.3961    1.2773  -23.6903 C   0  0  0  0  0  0  0  0  0  0  0  0
  -10.9382    2.6781  -23.9699 C   0  0  0  0  0  0  0  0  0  0  0  0
  -11.9029    3.8205  -23.8498 O   0  0  0  0  0  0  0  0  0  0  0  0
   -7.9248   -3.3307  -24.0654 C   0  0  0  0  0  0  0  0  0  0  0  0
   -7.2981   -3.9169  -22.8351 C   0  0  0  0  0  0  0  0  0  0  0  0
   -7.1558   -5.4041  -22.7018 N   0  0  0  0  0  0  0  0  0  0  0  0
   -7.6401   -6.3052  -23.7988 C   0  0  0  0  0  0  0  0  0  0  0  0
   -8.2668   -5.7191  -25.0291 C   0  0  0  0  0  0  0  0  0  0  0  0
   -8.7512   -6.6202  -26.1261 C   0  0  0  0  0  0  0  0  0  0  0  0
   -9.3779   -6.0340  -27.3564 C   0  0  0  0  0  0  0  0  0  0  0  0
   -9.5203   -4.5467  -27.4897 C   0  0  0  0  0  0  0  0  0  0  0  0
   -9.0359   -3.6456  -26.3927 C   0  0  0  0  0  0  0  0  0  0  0  0
   -8.4092   -4.2318  -25.1624 C   0  0  0  0  0  0  0  0  0  0  0  0
   -9.0579    4.3374  -24.6491 C   0  0  0  0  0  0  0  0  0  0  0  0
   -9.2469    4.9298  -26.0141 C   0  0  0  0  0  0  0  0  0  0  0  0
  -13.6455    7.5815  -25.2263 C   0  0  0  0  0  0  0  0  0  0  0  0
  -12.8146    6.6667  -26.0766 C   0  0  0  0  0  0  0  0  0  0  0  0
  -11.4462    6.2556  -25.6202 C   0  0  0  0  0  0  0  0  0  0  0  0
  -10.6153    5.3409  -26.4705 N   0  0  0  0  0  0  0  0  0  0  0  0
  -11.1529    4.8373  -27.7771 C   0  0  0  0  0  0  0  0  0  0  0  0
  -10.3220    3.9226  -28.6274 C   0  0  0  0  0  0  0  0  0  0  0  0
  -12.5214    5.2484  -28.2335 C   0  0  0  0  0  0  0  0  0  0  0  0
  -13.3523    6.1631  -27.3832 O   0  0  0  0  0  0  0  0  0  0  0  0
  -10.2497    5.6834  -25.5820 H   0  0  0  0  0  0  0  0  0  0  0  0
 32 31  1  0  0  0
 32 33  1  0  0  0
 33 34  1  0  0  0
 34 30  1  0  0  0
 30 29  1  0  0  0
 29  1  1  0  0  0
  1  2  1  0  0  0
  3  2  1  0  0  0
  3  4  1  0  0  0
  4  5  2  0  0  0
  4  6  1  0  0  0
  6 19  1  0  0  0
 19 20  2  0  0  0
 20 21  1  0  0  0
 21 22  2  0  0  0
 22 23  1  0  0  0
 23 24  2  0  0  0
 24 25  1  0  0  0
 25 26  2  0  0  0
 26 27  1  0  0  0
 27 28  2  0  0  0
  6  7  1  0  0  0
  7  8  1  0  0  0
  8  9  1  0  0  0
  3 10  1  0  0  0
 10 11  2  0  0  0
 11 12  1  0  0  0
 12 13  1  0  0  0
 12 14  2  0  0  0
 14 15  1  0  0  0
 15 16  2  0  0  0
 16 17  1  0  0  0
 17 18  2  0  0  0
 34 35  1  0  0  0
 35 36  1  0  0  0
 35 37  1  0  0  0
 37 38  1  0  0  0
 38 32  1  0  0  0
 17  1  1  0  0  0
  8  3  1  0  0  0
 16 10  1  0  0  0
 28 19  1  0  0  0
 28 23  1  0  0  0
 34 39  1  0  0  0
M  CHG 1  34   1
M  END
> <minimizedAffinity>
-7.80573

> <CNNscore>
0.4019089639

> <CNNaffinity>
6.5075440407

> <CNN_VS>
2.6154403687

> <CNNaffinity_variance>
0.1100864038

$$$$



 39 44  0  0  0  0  0  0  0  0999 V2000
  -10.4580    3.6322  -24.1565 N   0  0  0  0  0  0  0  0  0  0  0  0
   -9.2146    2.7950  -24.0980 C   0  0  0  0  0  0  0  0  0  0  0  0
   -9.3143    1.3214  -23.8367 C   0  0  0  0  0  0  0  0  0  0  0  0
   -9.2573   -0.1564  -23.5856 C   0  0  0  0  0  0  0  0  0  0  0  0
  -10.0006   -1.0936  -23.3724 O   0  0  0  0  0  0  0  0  0  0  0  0
   -7.8175   -0.5760  -23.6128 N   0  0  0  0  0  0  0  0  0  0  0  0
   -6.9845    0.6424  -23.8808 C   0  0  0  0  0  0  0  0  0  0  0  0
   -7.9096    1.8150  -24.0191 C   0  0  0  0  0  0  0  0  0  0  0  0
   -7.5017    3.2324  -24.2920 C   0  0  0  0  0  0  0  0  0  0  0  0
  -10.6573    0.6847  -23.6339 C   0  0  0  0  0  0  0  0  0  0  0  0
  -10.7570   -0.7889  -23.3726 C   0  0  0  0  0  0  0  0  0  0  0  0
  -12.0999   -1.4255  -23.1698 C   0  0  0  0  0  0  0  0  0  0  0  0
  -12.1996   -2.8993  -22.9085 Cl  0  0  0  0  0  0  0  0  0  0  0  0
  -13.3432   -0.5884  -23.2282 C   0  0  0  0  0  0  0  0  0  0  0  0
  -13.2436    0.8853  -23.4895 C   0  0  0  0  0  0  0  0  0  0  0  0
  -11.9006    1.5218  -23.6923 C   0  0  0  0  0  0  0  0  0  0  0  0
  -11.8009    2.9956  -23.9536 C   0  0  0  0  0  0  0  0  0  0  0  0
  -13.0442    3.8327  -24.0121 O   0  0  0  0  0  0  0  0  0  0  0  0
   -7.3012   -1.9694  -23.4080 C   0  0  0  0  0  0  0  0  0  0  0  0
   -6.6750   -2.3526  -22.0999 C   0  0  0  0  0  0  0  0  0  0  0  0
   -6.1588   -3.7459  -21.8951 N   0  0  0  0  0  0  0  0  0  0  0  0
   -6.2687   -4.7562  -22.9984 C   0  0  0  0  0  0  0  0  0  0  0  0
   -6.8949   -4.3730  -24.3065 C   0  0  0  0  0  0  0  0  0  0  0  0
   -7.0049   -5.3834  -25.4099 C   0  0  0  0  0  0  0  0  0  0  0  0
   -7.6311   -5.0001  -26.7179 C   0  0  0  0  0  0  0  0  0  0  0  0
   -8.1473   -3.6067  -26.9227 C   0  0  0  0  0  0  0  0  0  0  0  0
   -8.0374   -2.5965  -25.8194 C   0  0  0  0  0  0  0  0  0  0  0  0
   -7.4112   -2.9796  -24.5113 C   0  0  0  0  0  0  0  0  0  0  0  0
  -10.3583    5.1059  -24.4177 C   0  0  0  0  0  0  0  0  0  0  0  0
  -11.5989    5.9062  -24.6829 C   0  0  0  0  0  0  0  0  0  0  0  0
  -11.7392    4.1209  -29.5606 C   0  0  0  0  0  0  0  0  0  0  0  0
  -12.2642    5.0406  -28.4983 C   0  0  0  0  0  0  0  0  0  0  0  0
  -11.6690    5.0135  -27.1218 C   0  0  0  0  0  0  0  0  0  0  0  0
  -12.1941    5.9332  -26.0595 N   0  0  0  0  0  0  0  0  0  0  0  0
  -13.3142    6.8800  -26.3737 C   0  0  0  0  0  0  0  0  0  0  0  0
  -13.8393    7.7997  -25.3114 C   0  0  0  0  0  0  0  0  0  0  0  0
  -13.9095    6.9071  -27.7504 C   0  0  0  0  0  0  0  0  0  0  0  0
  -13.3844    5.9874  -28.8127 O   0  0  0  0  0  0  0  0  0  0  0  0
  -11.4323    5.2894  -25.8457 H   0  0  0  0  0  0  0  0  0  0  0  0
 32 31  1  0  0  0
 32 33  1  0  0  0
 33 34  1  0  0  0
 34 30  1  0  0  0
 30 29  1  0  0  0
 29  1  1  0  0  0
  1  2  1  0  0  0
  3  2  1  0  0  0
  3  4  1  0  0  0
  4  5  2  0  0  0
  4  6  1  0  0  0
  6 19  1  0  0  0
 19 20  2  0  0  0
 20 21  1  0  0  0
 21 22  2  0  0  0
 22 23  1  0  0  0
 23 24  2  0  0  0
 24 25  1  0  0  0
 25 26  2  0  0  0
 26 27  1  0  0  0
 27 28  2  0  0  0
  6  7  1  0  0  0
  7  8  1  0  0  0
  8  9  1  0  0  0
  3 10  1  0  0  0
 10 11  2  0  0  0
 11 12  1  0  0  0
 12 13  1  0  0  0
 12 14  2  0  0  0
 14 15  1  0  0  0
 15 16  2  0  0  0
 16 17  1  0  0  0
 17 18  2  0  0  0
 34 35  1  0  0  0
 35 36  1  0  0  0
 35 37  1  0  0  0
 37 38  1  0  0  0
 38 32  1  0  0  0
 17  1  1  0  0  0
  8  3  1  0  0  0
 16 10  1  0  0  0
 28 19  1  0  0  0
 28 23  1  0  0  0
 34 39  1  0  0  0
M  CHG 1  34   1
M  END
> <minimizedAffinity>
-8.03347

> <CNNscore>
0.3703006506

> <CNNaffinity>
6.4170103073

> <CNN_VS>
2.3762230873

> <CNNaffinity_variance>
0.2901344895

$$$$



 39 44  0  0  0  0  0  0  0  0999 V2000
  -11.4637    3.9713  -24.0752 N   0  0  0  0  0  0  0  0  0  0  0  0
  -10.0944    3.3700  -23.9593 C   0  0  0  0  0  0  0  0  0  0  0  0
   -9.9401    1.9037  -23.6832 C   0  0  0  0  0  0  0  0  0  0  0  0
   -9.6307    0.4614  -23.4113 C   0  0  0  0  0  0  0  0  0  0  0  0
  -10.2028   -0.5922  -23.2144 O   0  0  0  0  0  0  0  0  0  0  0  0
   -8.1391    0.3054  -23.3789 N   0  0  0  0  0  0  0  0  0  0  0  0
   -7.5268    1.6514  -23.6307 C   0  0  0  0  0  0  0  0  0  0  0  0
   -8.6398    2.6392  -23.8188 C   0  0  0  0  0  0  0  0  0  0  0  0
   -8.4805    4.1050  -24.0942 C   0  0  0  0  0  0  0  0  0  0  0  0
  -11.1551    1.0387  -23.5231 C   0  0  0  0  0  0  0  0  0  0  0  0
  -11.0008   -0.4275  -23.2470 C   0  0  0  0  0  0  0  0  0  0  0  0
  -12.2158   -1.2925  -23.0869 C   0  0  0  0  0  0  0  0  0  0  0  0
  -12.0615   -2.7588  -22.8108 Cl  0  0  0  0  0  0  0  0  0  0  0  0
  -13.5851   -0.6911  -23.2029 C   0  0  0  0  0  0  0  0  0  0  0  0
  -13.7394    0.7751  -23.4789 C   0  0  0  0  0  0  0  0  0  0  0  0
  -12.5244    1.6400  -23.6390 C   0  0  0  0  0  0  0  0  0  0  0  0
  -12.6787    3.1064  -23.9151 C   0  0  0  0  0  0  0  0  0  0  0  0
  -14.0480    3.7077  -24.0311 O   0  0  0  0  0  0  0  0  0  0  0  0
   -7.3913   -0.9722  -23.1371 C   0  0  0  0  0  0  0  0  0  0  0  0
   -7.1864   -1.9454  -24.2600 C   0  0  0  0  0  0  0  0  0  0  0  0
   -6.4386   -3.2230  -24.0182 N   0  0  0  0  0  0  0  0  0  0  0  0
   -5.8957   -3.5274  -22.6534 C   0  0  0  0  0  0  0  0  0  0  0  0
   -6.1006   -2.5542  -21.5305 C   0  0  0  0  0  0  0  0  0  0  0  0
   -5.5576   -2.8587  -20.1657 C   0  0  0  0  0  0  0  0  0  0  0  0
   -5.7626   -1.8854  -19.0429 C   0  0  0  0  0  0  0  0  0  0  0  0
   -6.5104   -0.6078  -19.2847 C   0  0  0  0  0  0  0  0  0  0  0  0
   -7.0533   -0.3034  -20.6494 C   0  0  0  0  0  0  0  0  0  0  0  0
   -6.8484   -1.2766  -21.7723 C   0  0  0  0  0  0  0  0  0  0  0  0
  -11.6180    5.4376  -24.3513 C   0  0  0  0  0  0  0  0  0  0  0  0
  -12.4010    5.8977  -25.5452 C   0  0  0  0  0  0  0  0  0  0  0  0
   -9.1193    3.3718  -28.6837 C   0  0  0  0  0  0  0  0  0  0  0  0
  -10.3665    4.1822  -28.4893 C   0  0  0  0  0  0  0  0  0  0  0  0
  -10.7601    4.6347  -27.1145 C   0  0  0  0  0  0  0  0  0  0  0  0
  -12.0073    5.4451  -26.9200 N   0  0  0  0  0  0  0  0  0  0  0  0
  -12.8609    5.8030  -28.1004 C   0  0  0  0  0  0  0  0  0  0  0  0
  -14.1080    6.6134  -27.9060 C   0  0  0  0  0  0  0  0  0  0  0  0
  -12.4672    5.3505  -29.4753 C   0  0  0  0  0  0  0  0  0  0  0  0
  -11.2201    4.5401  -29.6698 O   0  0  0  0  0  0  0  0  0  0  0  0
  -11.4269    5.2018  -26.1173 H   0  0  0  0  0  0  0  0  0  0  0  0
 32 31  1  0  0  0
 32 33  1  0  0  0
 33 34  1  0  0  0
 34 30  1  0  0  0
 30 29  1  0  0  0
 29  1  1  0  0  0
  1  2  1  0  0  0
  3  2  1  0  0  0
  3  4  1  0  0  0
  4  5  2  0  0  0
  4  6  1  0  0  0
  6 19  1  0  0  0
 19 20  2  0  0  0
 20 21  1  0  0  0
 21 22  2  0  0  0
 22 23  1  0  0  0
 23 24  2  0  0  0
 24 25  1  0  0  0
 25 26  2  0  0  0
 26 27  1  0  0  0
 27 28  2  0  0  0
  6  7  1  0  0  0
  7  8  1  0  0  0
  8  9  1  0  0  0
  3 10  1  0  0  0
 10 11  2  0  0  0
 11 12  1  0  0  0
 12 13  1  0  0  0
 12 14  2  0  0  0
 14 15  1  0  0  0
 15 16  2  0  0  0
 16 17  1  0  0  0
 17 18  2  0  0  0
 34 35  1  0  0  0
 35 36  1  0  0  0
 35 37  1  0  0  0
 37 38  1  0  0  0
 38 32  1  0  0  0
 17  1  1  0  0  0
  8  3  1  0  0  0
 16 10  1  0  0  0
 28 19  1  0  0  0
 28 23  1  0  0  0
 34 39  1  0  0  0
M  CHG 1  34   1
M  END
> <minimizedAffinity>
-8.29319

> <CNNscore>
0.2312188148

> <CNNaffinity>
6.3506722450

> <CNN_VS>
1.4683948755

> <CNNaffinity_variance>
0.1975997388

$$$$



 39 44  0  0  0  0  0  0  0  0999 V2000
   -7.3960   -1.6703  -24.2550 N   0  0  0  0  0  0  0  0  0  0  0  0
   -6.0865   -0.9465  -24.3606 C   0  0  0  0  0  0  0  0  0  0  0  0
   -5.3851   -0.4800  -23.1195 C   0  0  0  0  0  0  0  0  0  0  0  0
   -4.5719    0.0431  -21.9727 C   0  0  0  0  0  0  0  0  0  0  0  0
   -4.6024    0.0998  -20.7594 O   0  0  0  0  0  0  0  0  0  0  0  0
   -3.3431    0.6942  -22.5349 N   0  0  0  0  0  0  0  0  0  0  0  0
   -3.3968    0.5735  -24.0290 C   0  0  0  0  0  0  0  0  0  0  0  0
   -4.6589   -0.1522  -24.3903 C   0  0  0  0  0  0  0  0  0  0  0  0
   -5.1146   -0.4907  -25.7787 C   0  0  0  0  0  0  0  0  0  0  0  0
   -5.9934   -0.7374  -21.7726 C   0  0  0  0  0  0  0  0  0  0  0  0
   -5.2920   -0.2710  -20.5315 C   0  0  0  0  0  0  0  0  0  0  0  0
   -5.9003   -0.5284  -19.1847 C   0  0  0  0  0  0  0  0  0  0  0  0
   -5.1989   -0.0619  -17.9435 Cl  0  0  0  0  0  0  0  0  0  0  0  0
   -7.2098   -1.2522  -19.0791 C   0  0  0  0  0  0  0  0  0  0  0  0
   -7.9111   -1.7187  -20.3203 C   0  0  0  0  0  0  0  0  0  0  0  0
   -7.3029   -1.4613  -21.6670 C   0  0  0  0  0  0  0  0  0  0  0  0
   -8.0042   -1.9277  -22.9083 C   0  0  0  0  0  0  0  0  0  0  0  0
   -9.3138   -2.6516  -22.8027 O   0  0  0  0  0  0  0  0  0  0  0  0
   -2.2520    1.3508  -21.7420 C   0  0  0  0  0  0  0  0  0  0  0  0
   -2.4880    1.7257  -20.3089 C   0  0  0  0  0  0  0  0  0  0  0  0
   -1.3969    2.3823  -19.5160 N   0  0  0  0  0  0  0  0  0  0  0  0
   -0.0700    2.6638  -20.1563 C   0  0  0  0  0  0  0  0  0  0  0  0
    0.1659    2.2889  -21.5894 C   0  0  0  0  0  0  0  0  0  0  0  0
    1.4929    2.5705  -22.2297 C   0  0  0  0  0  0  0  0  0  0  0  0
    1.7287    2.1955  -23.6628 C   0  0  0  0  0  0  0  0  0  0  0  0
    0.6377    1.5389  -24.4556 C   0  0  0  0  0  0  0  0  0  0  0  0
   -0.6892    1.2574  -23.8154 C   0  0  0  0  0  0  0  0  0  0  0  0
   -0.9251    1.6323  -22.3823 C   0  0  0  0  0  0  0  0  0  0  0  0
   -8.0973   -2.1368  -25.4963 C   0  0  0  0  0  0  0  0  0  0  0  0
   -7.6160   -3.3630  -26.2138 C   0  0  0  0  0  0  0  0  0  0  0  0
   -7.0441   -7.0767  -22.6249 C   0  0  0  0  0  0  0  0  0  0  0  0
   -7.6749   -6.5811  -23.8923 C   0  0  0  0  0  0  0  0  0  0  0  0
   -7.3300   -5.2198  -24.4193 C   0  0  0  0  0  0  0  0  0  0  0  0
   -7.9609   -4.7243  -25.6868 N   0  0  0  0  0  0  0  0  0  0  0  0
   -8.9367   -5.5900  -26.4272 C   0  0  0  0  0  0  0  0  0  0  0  0
   -9.5675   -5.0945  -27.6947 C   0  0  0  0  0  0  0  0  0  0  0  0
   -9.2816   -6.9514  -25.9002 C   0  0  0  0  0  0  0  0  0  0  0  0
   -8.6508   -7.4470  -24.6327 O   0  0  0  0  0  0  0  0  0  0  0  0
   -7.2973   -4.1355  -25.1833 H   0  0  0  0  0  0  0  0  0  0  0  0
 32 31  1  0  0  0
 32 33  1  0  0  0
 33 34  1  0  0  0
 34 30  1  0  0  0
 30 29  1  0  0  0
 29  1  1  0  0  0
  1  2  1  0  0  0
  3  2  1  0  0  0
  3  4  1  0  0  0
  4  5  2  0  0  0
  4  6  1  0  0  0
  6 19  1  0  0  0
 19 20  2  0  0  0
 20 21  1  0  0  0
 21 22  2  0  0  0
 22 23  1  0  0  0
 23 24  2  0  0  0
 24 25  1  0  0  0
 25 26  2  0  0  0
 26 27  1  0  0  0
 27 28  2  0  0  0
  6  7  1  0  0  0
  7  8  1  0  0  0
  8  9  1  0  0  0
  3 10  1  0  0  0
 10 11  2  0  0  0
 11 12  1  0  0  0
 12 13  1  0  0  0
 12 14  2  0  0  0
 14 15  1  0  0  0
 15 16  2  0  0  0
 16 17  1  0  0  0
 17 18  2  0  0  0
 34 35  1  0  0  0
 35 36  1  0  0  0
 35 37  1  0  0  0
 37 38  1  0  0  0
 38 32  1  0  0  0
 17  1  1  0  0  0
  8  3  1  0  0  0
 16 10  1  0  0  0
 28 19  1  0  0  0
 28 23  1  0  0  0
 34 39  1  0  0  0
M  CHG 1  34   1
M  END
> <minimizedAffinity>
-7.99930

> <CNNscore>
0.1967306137

> <CNNaffinity>
5.7643938065

> <CNN_VS>
1.1340327263

> <CNNaffinity_variance>
0.4622970223

$$$$



 39 44  0  0  0  0  0  0  0  0999 V2000
   -6.5909   -0.7139  -23.4028 N   0  0  0  0  0  0  0  0  0  0  0  0
   -6.8942    0.6002  -24.0594 C   0  0  0  0  0  0  0  0  0  0  0  0
   -8.3178    1.0105  -24.2938 C   0  0  0  0  0  0  0  0  0  0  0  0
   -9.6843    1.5525  -24.5920 C   0  0  0  0  0  0  0  0  0  0  0  0
  -10.8540    1.2481  -24.4673 O   0  0  0  0  0  0  0  0  0  0  0  0
   -9.5190    2.8903  -25.2500 N   0  0  0  0  0  0  0  0  0  0  0  0
   -8.0503    3.1752  -25.3584 C   0  0  0  0  0  0  0  0  0  0  0  0
   -7.3079    2.0134  -24.7675 C   0  0  0  0  0  0  0  0  0  0  0  0
   -5.8174    1.8783  -24.6677 C   0  0  0  0  0  0  0  0  0  0  0  0
   -9.4381    0.1068  -23.8716 C   0  0  0  0  0  0  0  0  0  0  0  0
  -10.8617    0.5172  -24.1060 C   0  0  0  0  0  0  0  0  0  0  0  0
  -11.9819   -0.3866  -23.6837 C   0  0  0  0  0  0  0  0  0  0  0  0
  -13.4056    0.0238  -23.9181 Cl  0  0  0  0  0  0  0  0  0  0  0  0
  -11.6786   -1.7007  -23.0271 C   0  0  0  0  0  0  0  0  0  0  0  0
  -10.2550   -2.1110  -22.7928 C   0  0  0  0  0  0  0  0  0  0  0  0
   -9.1348   -1.2073  -23.2150 C   0  0  0  0  0  0  0  0  0  0  0  0
   -7.7111   -1.6177  -22.9806 C   0  0  0  0  0  0  0  0  0  0  0  0
   -7.4078   -2.9318  -22.3240 O   0  0  0  0  0  0  0  0  0  0  0  0
  -10.6277    3.7860  -25.7174 C   0  0  0  0  0  0  0  0  0  0  0  0
  -10.7499    4.1317  -27.1719 C   0  0  0  0  0  0  0  0  0  0  0  0
  -11.8586    5.0274  -27.6394 N   0  0  0  0  0  0  0  0  0  0  0  0
  -12.8451    5.5774  -26.6523 C   0  0  0  0  0  0  0  0  0  0  0  0
  -12.7229    5.2316  -25.1978 C   0  0  0  0  0  0  0  0  0  0  0  0
  -13.7095    5.7816  -24.2107 C   0  0  0  0  0  0  0  0  0  0  0  0
  -13.5872    5.4359  -22.7562 C   0  0  0  0  0  0  0  0  0  0  0  0
  -12.4785    4.5402  -22.2888 C   0  0  0  0  0  0  0  0  0  0  0  0
  -11.4920    3.9902  -23.2758 C   0  0  0  0  0  0  0  0  0  0  0  0
  -11.6142    4.3360  -24.7304 C   0  0  0  0  0  0  0  0  0  0  0  0
   -5.1672   -1.1243  -23.1684 C   0  0  0  0  0  0  0  0  0  0  0  0
   -4.1060   -0.0799  -22.9864 C   0  0  0  0  0  0  0  0  0  0  0  0
   -5.2177    0.1743  -17.9170 C   0  0  0  0  0  0  0  0  0  0  0  0
   -4.4402    0.6640  -19.1026 C   0  0  0  0  0  0  0  0  0  0  0  0
   -4.6619    0.0472  -20.4517 C   0  0  0  0  0  0  0  0  0  0  0  0
   -3.8843    0.5369  -21.6373 N   0  0  0  0  0  0  0  0  0  0  0  0
   -2.8850    1.6436  -21.4737 C   0  0  0  0  0  0  0  0  0  0  0  0
   -2.1075    2.1333  -22.6592 C   0  0  0  0  0  0  0  0  0  0  0  0
   -2.6633    2.2605  -20.1244 C   0  0  0  0  0  0  0  0  0  0  0  0
   -3.4409    1.7707  -18.9389 O   0  0  0  0  0  0  0  0  0  0  0  0
   -4.5638   -0.2156  -21.7486 H   0  0  0  0  0  0  0  0  0  0  0  0
 32 31  1  0  0  0
 32 33  1  0  0  0
 33 34  1  0  0  0
 34 30  1  0  0  0
 30 29  1  0  0  0
 29  1  1  0  0  0
  1  2  1  0  0  0
  3  2  1  0  0  0
  3  4  1  0  0  0
  4  5  2  0  0  0
  4  6  1  0  0  0
  6 19  1  0  0  0
 19 20  2  0  0  0
 20 21  1  0  0  0
 21 22  2  0  0  0
 22 23  1  0  0  0
 23 24  2  0  0  0
 24 25  1  0  0  0
 25 26  2  0  0  0
 26 27  1  0  0  0
 27 28  2  0  0  0
  6  7  1  0  0  0
  7  8  1  0  0  0
  8  9  1  0  0  0
  3 10  1  0  0  0
 10 11  2  0  0  0
 11 12  1  0  0  0
 12 13  1  0  0  0
 12 14  2  0  0  0
 14 15  1  0  0  0
 15 16  2  0  0  0
 16 17  1  0  0  0
 17 18  2  0  0  0
 34 35  1  0  0  0
 35 36  1  0  0  0
 35 37  1  0  0  0
 37 38  1  0  0  0
 38 32  1  0  0  0
 17  1  1  0  0  0
  8  3  1  0  0  0
 16 10  1  0  0  0
 28 19  1  0  0  0
 28 23  1  0  0  0
 34 39  1  0  0  0
M  CHG 1  34   1
M  END
> <minimizedAffinity>
-8.67827

> <CNNscore>
0.1911152452

> <CNNaffinity>
6.0525317192

> <CNN_VS>
1.1567311287

> <CNNaffinity_variance>
0.2391734123

$$$$
