


 28 31  0  0  0  0  0  0  0  0999 V2000
    9.6259    1.7048   23.0707 C   0  0  0  0  0  0  0  0  0  0  0  0
    9.5574    3.1987   23.1879 C   0  0  0  0  0  0  0  0  0  0  0  0
   10.7702    4.0305   22.8927 C   0  0  0  0  0  0  0  0  0  0  0  0
   10.7017    5.5244   23.0099 C   0  0  0  0  0  0  0  0  0  0  0  0
   12.0515    3.3685   22.4804 C   0  0  0  0  0  0  0  0  0  0  0  0
   12.1200    1.8747   22.3633 C   0  0  0  0  0  0  0  0  0  0  0  0
   10.9071    1.0428   22.6584 N   0  0  0  0  0  0  0  0  0  0  0  0
   10.9756   -0.4510   22.5412 C   0  0  0  0  0  0  0  0  0  0  0  0
   12.2570   -1.1130   22.1289 O   0  0  0  0  0  0  0  0  0  0  0  0
    7.5068    0.4458   22.2495 C   0  0  0  0  0  0  0  0  0  0  0  0
    6.2939   -0.3860   22.5446 C   0  0  0  0  0  0  0  0  0  0  0  0
    5.9874   -0.7906   23.9561 C   0  0  0  0  0  0  0  0  0  0  0  0
    6.8936   -0.3634   25.0725 C   0  0  0  0  0  0  0  0  0  0  0  0
    8.1064    0.4684   24.7773 C   0  0  0  0  0  0  0  0  0  0  0  0
    8.4130    0.8730   23.3658 C   0  0  0  0  0  0  0  0  0  0  0  0
    6.9759    0.3269   19.7090 C   0  0  0  0  0  0  0  0  0  0  0  0
    7.8133    0.8504   20.8380 O   0  0  0  0  0  0  0  0  0  0  0  0
    9.7628   -1.2829   22.8363 C   0  0  0  0  0  0  0  0  0  0  0  0
    9.8446   -2.4009   23.8330 C   0  0  0  0  0  0  0  0  0  0  0  0
    8.7552   -3.4300   23.8967 C   0  0  0  0  0  0  0  0  0  0  0  0
    8.8369   -4.5480   24.8933 N   0  0  0  0  0  0  0  0  0  0  0  0
   10.0080   -4.6369   25.8264 C   0  0  0  0  0  0  0  0  0  0  0  0
   11.0974   -3.6077   25.7628 C   0  0  0  0  0  0  0  0  0  0  0  0
   12.2685   -3.6965   26.6958 C   0  0  0  0  0  0  0  0  0  0  0  0
   13.3579   -2.6674   26.6322 C   0  0  0  0  0  0  0  0  0  0  0  0
   13.2761   -1.5494   25.6355 C   0  0  0  0  0  0  0  0  0  0  0  0
   12.1051   -1.4605   24.7025 C   0  0  0  0  0  0  0  0  0  0  0  0
   11.0157   -2.4897   24.7661 C   0  0  0  0  0  0  0  0  0  0  0  0
 16 17  1  0  0  0
 17 10  1  0  0  0
 10 11  2  0  0  0
 11 12  1  0  0  0
 12 13  2  0  0  0
 13 14  1  0  0  0
 14 15  2  0  0  0
  1 15  1  0  0  0
  1  2  1  0  0  0
  2  3  1  0  0  0
  3  4  1  0  0  0
  3  5  1  0  0  0
  5  6  1  0  0  0
  6  7  1  0  0  0
  7  8  1  0  0  0
  8  9  2  0  0  0
  8 18  1  0  0  0
 18 19  1  0  0  0
 19 20  2  0  0  0
 20 21  1  0  0  0
 21 22  2  0  0  0
 22 23  1  0  0  0
 23 24  2  0  0  0
 24 25  1  0  0  0
 25 26  2  0  0  0
 26 27  1  0  0  0
 27 28  2  0  0  0
 15 10  1  0  0  0
  7  1  1  0  0  0
 28 19  1  0  0  0
 28 23  1  0  0  0
M  END
> <minimizedAffinity>
-7.74825

> <CNNscore>
0.4488847554

> <CNNaffinity>
6.1894531250

> <CNN_VS>
2.7783510685

> <CNNaffinity_variance>
0.0480184779

$$$$



 28 31  0  0  0  0  0  0  0  0999 V2000
    5.4415   -3.9717   25.1789 C   0  0  0  0  0  0  0  0  0  0  0  0
    4.0184   -4.0490   25.6467 C   0  0  0  0  0  0  0  0  0  0  0  0
    3.3476   -5.3828   25.7907 C   0  0  0  0  0  0  0  0  0  0  0  0
    1.9245   -5.4601   26.2585 C   0  0  0  0  0  0  0  0  0  0  0  0
    4.0999   -6.6395   25.4669 C   0  0  0  0  0  0  0  0  0  0  0  0
    5.5230   -6.5623   24.9991 C   0  0  0  0  0  0  0  0  0  0  0  0
    6.1938   -5.2283   24.8551 N   0  0  0  0  0  0  0  0  0  0  0  0
    7.6169   -5.1511   24.3873 C   0  0  0  0  0  0  0  0  0  0  0  0
    8.3692   -6.4078   24.0635 O   0  0  0  0  0  0  0  0  0  0  0  0
    6.8148   -2.0211   26.2081 C   0  0  0  0  0  0  0  0  0  0  0  0
    7.4856   -0.6872   26.0641 C   0  0  0  0  0  0  0  0  0  0  0  0
    7.4538    0.0300   24.7470 C   0  0  0  0  0  0  0  0  0  0  0  0
    6.7513   -0.5867   23.5740 C   0  0  0  0  0  0  0  0  0  0  0  0
    6.0805   -1.9206   23.7180 C   0  0  0  0  0  0  0  0  0  0  0  0
    6.1123   -2.6378   25.0350 C   0  0  0  0  0  0  0  0  0  0  0  0
    5.8203   -2.4268   28.5737 C   0  0  0  0  0  0  0  0  0  0  0  0
    6.8466   -2.7383   27.5251 O   0  0  0  0  0  0  0  0  0  0  0  0
    8.2877   -3.8172   24.2434 C   0  0  0  0  0  0  0  0  0  0  0  0
    9.6171   -3.5722   24.8935 C   0  0  0  0  0  0  0  0  0  0  0  0
    9.9555   -4.2508   26.1877 C   0  0  0  0  0  0  0  0  0  0  0  0
   11.2849   -4.0058   26.8378 N   0  0  0  0  0  0  0  0  0  0  0  0
   12.2759   -3.0822   26.1937 C   0  0  0  0  0  0  0  0  0  0  0  0
   11.9375   -2.4036   24.8995 C   0  0  0  0  0  0  0  0  0  0  0  0
   12.9285   -1.4800   24.2554 C   0  0  0  0  0  0  0  0  0  0  0  0
   12.5901   -0.8014   22.9612 C   0  0  0  0  0  0  0  0  0  0  0  0
   11.2607   -1.0464   22.3111 C   0  0  0  0  0  0  0  0  0  0  0  0
   10.2697   -1.9700   22.9552 C   0  0  0  0  0  0  0  0  0  0  0  0
   10.6081   -2.6486   24.2494 C   0  0  0  0  0  0  0  0  0  0  0  0
 16 17  1  0  0  0
 17 10  1  0  0  0
 10 11  2  0  0  0
 11 12  1  0  0  0
 12 13  2  0  0  0
 13 14  1  0  0  0
 14 15  2  0  0  0
  1 15  1  0  0  0
  1  2  1  0  0  0
  2  3  1  0  0  0
  3  4  1  0  0  0
  3  5  1  0  0  0
  5  6  1  0  0  0
  6  7  1  0  0  0
  7  8  1  0  0  0
  8  9  2  0  0  0
  8 18  1  0  0  0
 18 19  1  0  0  0
 19 20  2  0  0  0
 20 21  1  0  0  0
 21 22  2  0  0  0
 22 23  1  0  0  0
 23 24  2  0  0  0
 24 25  1  0  0  0
 25 26  2  0  0  0
 26 27  1  0  0  0
 27 28  2  0  0  0
 15 10  1  0  0  0
  7  1  1  0  0  0
 28 19  1  0  0  0
 28 23  1  0  0  0
M  END
> <minimizedAffinity>
-6.59713

> <CNNscore>
0.4448355436

> <CNNaffinity>
5.9917283058

> <CNN_VS>
2.6653337479

> <CNNaffinity_variance>
0.1079180390

$$$$



 28 31  0  0  0  0  0  0  0  0999 V2000
    9.7632   -0.8732   23.7509 C   0  0  0  0  0  0  0  0  0  0  0  0
   10.8330   -1.5520   24.5539 C   0  0  0  0  0  0  0  0  0  0  0  0
   12.2260   -0.9961   24.5690 C   0  0  0  0  0  0  0  0  0  0  0  0
   13.2958   -1.6748   25.3720 C   0  0  0  0  0  0  0  0  0  0  0  0
   12.5494    0.2387   23.7810 C   0  0  0  0  0  0  0  0  0  0  0  0
   11.4796    0.9175   22.9779 C   0  0  0  0  0  0  0  0  0  0  0  0
   10.0865    0.3615   22.9629 N   0  0  0  0  0  0  0  0  0  0  0  0
    9.0167    1.0402   22.1598 C   0  0  0  0  0  0  0  0  0  0  0  0
    9.3401    2.2750   21.3718 O   0  0  0  0  0  0  0  0  0  0  0  0
    7.3522   -0.9288   24.7174 C   0  0  0  0  0  0  0  0  0  0  0  0
    5.9592   -1.4848   24.7023 C   0  0  0  0  0  0  0  0  0  0  0  0
    5.5840   -2.5412   23.7057 C   0  0  0  0  0  0  0  0  0  0  0  0
    6.6019   -3.0416   22.7241 C   0  0  0  0  0  0  0  0  0  0  0  0
    7.9949   -2.4856   22.7392 C   0  0  0  0  0  0  0  0  0  0  0  0
    8.3701   -1.4292   23.7358 C   0  0  0  0  0  0  0  0  0  0  0  0
    6.9751    1.4247   25.7511 C   0  0  0  0  0  0  0  0  0  0  0  0
    7.7274    0.1276   25.7140 O   0  0  0  0  0  0  0  0  0  0  0  0
    7.6237    0.4843   22.1448 C   0  0  0  0  0  0  0  0  0  0  0  0
    6.8373    0.4659   20.8676 C   0  0  0  0  0  0  0  0  0  0  0  0
    7.2625   -0.4243   19.7377 C   0  0  0  0  0  0  0  0  0  0  0  0
    6.4761   -0.4427   18.4605 N   0  0  0  0  0  0  0  0  0  0  0  0
    5.2644    0.4292   18.3132 C   0  0  0  0  0  0  0  0  0  0  0  0
    4.8391    1.3194   19.4431 C   0  0  0  0  0  0  0  0  0  0  0  0
    3.6274    2.1913   19.2958 C   0  0  0  0  0  0  0  0  0  0  0  0
    3.2022    3.0814   20.4257 C   0  0  0  0  0  0  0  0  0  0  0  0
    3.9886    3.0998   21.7029 C   0  0  0  0  0  0  0  0  0  0  0  0
    5.2003    2.2280   21.8502 C   0  0  0  0  0  0  0  0  0  0  0  0
    5.6255    1.3378   20.7203 C   0  0  0  0  0  0  0  0  0  0  0  0
 16 17  1  0  0  0
 17 10  1  0  0  0
 10 11  2  0  0  0
 11 12  1  0  0  0
 12 13  2  0  0  0
 13 14  1  0  0  0
 14 15  2  0  0  0
  1 15  1  0  0  0
  1  2  1  0  0  0
  2  3  1  0  0  0
  3  4  1  0  0  0
  3  5  1  0  0  0
  5  6  1  0  0  0
  6  7  1  0  0  0
  7  8  1  0  0  0
  8  9  2  0  0  0
  8 18  1  0  0  0
 18 19  1  0  0  0
 19 20  2  0  0  0
 20 21  1  0  0  0
 21 22  2  0  0  0
 22 23  1  0  0  0
 23 24  2  0  0  0
 24 25  1  0  0  0
 25 26  2  0  0  0
 26 27  1  0  0  0
 27 28  2  0  0  0
 15 10  1  0  0  0
  7  1  1  0  0  0
 28 19  1  0  0  0
 28 23  1  0  0  0
M  END
> <minimizedAffinity>
-7.30920

> <CNNscore>
0.4358990788

> <CNNaffinity>
5.8316955566

> <CNN_VS>
2.5420308113

> <CNNaffinity_variance>
0.1371262223

$$$$



 28 31  0  0  0  0  0  0  0  0999 V2000
    8.6803   -1.2837   24.1769 C   0  0  0  0  0  0  0  0  0  0  0  0
    9.7138   -1.7567   25.1558 C   0  0  0  0  0  0  0  0  0  0  0  0
    9.7672   -3.2030   25.5498 C   0  0  0  0  0  0  0  0  0  0  0  0
   10.8007   -3.6761   26.5286 C   0  0  0  0  0  0  0  0  0  0  0  0
    8.7870   -4.1764   24.9650 C   0  0  0  0  0  0  0  0  0  0  0  0
    7.7534   -3.7033   23.9862 C   0  0  0  0  0  0  0  0  0  0  0  0
    7.7002   -2.2569   23.5922 N   0  0  0  0  0  0  0  0  0  0  0  0
    6.6666   -1.7839   22.6133 C   0  0  0  0  0  0  0  0  0  0  0  0
    5.6864   -2.7572   22.0286 O   0  0  0  0  0  0  0  0  0  0  0  0
    7.7823    1.1229   24.5667 C   0  0  0  0  0  0  0  0  0  0  0  0
    7.7290    2.5692   24.1726 C   0  0  0  0  0  0  0  0  0  0  0  0
    8.5205    3.0553   22.9948 C   0  0  0  0  0  0  0  0  0  0  0  0
    9.3652    2.0951   22.2110 C   0  0  0  0  0  0  0  0  0  0  0  0
    9.4185    0.6488   22.6050 C   0  0  0  0  0  0  0  0  0  0  0  0
    8.6270    0.1627   23.7829 C   0  0  0  0  0  0  0  0  0  0  0  0
    6.7500    1.5460   26.9130 C   0  0  0  0  0  0  0  0  0  0  0  0
    6.9909    0.6369   25.7445 O   0  0  0  0  0  0  0  0  0  0  0  0
    6.6133   -0.3376   22.2193 C   0  0  0  0  0  0  0  0  0  0  0  0
    6.2079    0.0460   20.8270 C   0  0  0  0  0  0  0  0  0  0  0  0
    7.0880   -0.3082   19.6651 C   0  0  0  0  0  0  0  0  0  0  0  0
    6.6826    0.0754   18.2728 N   0  0  0  0  0  0  0  0  0  0  0  0
    5.3971    0.8131   18.0424 C   0  0  0  0  0  0  0  0  0  0  0  0
    4.5168    1.1672   19.2042 C   0  0  0  0  0  0  0  0  0  0  0  0
    3.2313    1.9049   18.9738 C   0  0  0  0  0  0  0  0  0  0  0  0
    2.3512    2.2590   20.1356 C   0  0  0  0  0  0  0  0  0  0  0  0
    2.7566    1.8754   21.5279 C   0  0  0  0  0  0  0  0  0  0  0  0
    4.0421    1.1378   21.7584 C   0  0  0  0  0  0  0  0  0  0  0  0
    4.9223    0.7837   20.5965 C   0  0  0  0  0  0  0  0  0  0  0  0
 16 17  1  0  0  0
 17 10  1  0  0  0
 10 11  2  0  0  0
 11 12  1  0  0  0
 12 13  2  0  0  0
 13 14  1  0  0  0
 14 15  2  0  0  0
  1 15  1  0  0  0
  1  2  1  0  0  0
  2  3  1  0  0  0
  3  4  1  0  0  0
  3  5  1  0  0  0
  5  6  1  0  0  0
  6  7  1  0  0  0
  7  8  1  0  0  0
  8  9  2  0  0  0
  8 18  1  0  0  0
 18 19  1  0  0  0
 19 20  2  0  0  0
 20 21  1  0  0  0
 21 22  2  0  0  0
 22 23  1  0  0  0
 23 24  2  0  0  0
 24 25  1  0  0  0
 25 26  2  0  0  0
 26 27  1  0  0  0
 27 28  2  0  0  0
 15 10  1  0  0  0
  7  1  1  0  0  0
 28 19  1  0  0  0
 28 23  1  0  0  0
M  END
> <minimizedAffinity>
-7.41817

> <CNNscore>
0.4187251925

> <CNNaffinity>
5.6958274841

> <CNN_VS>
2.3849864006

> <CNNaffinity_variance>
0.1127541289

$$$$



 28 31  0  0  0  0  0  0  0  0999 V2000
    5.6056   -3.4384   25.2974 C   0  0  0  0  0  0  0  0  0  0  0  0
    4.2219   -3.3273   25.8658 C   0  0  0  0  0  0  0  0  0  0  0  0
    3.4234   -4.5664   26.1432 C   0  0  0  0  0  0  0  0  0  0  0  0
    2.0397   -4.4554   26.7116 C   0  0  0  0  0  0  0  0  0  0  0  0
    4.0085   -5.9166   25.8521 C   0  0  0  0  0  0  0  0  0  0  0  0
    5.3922   -6.0277   25.2836 C   0  0  0  0  0  0  0  0  0  0  0  0
    6.1907   -4.7885   25.0063 N   0  0  0  0  0  0  0  0  0  0  0  0
    7.5744   -4.8995   24.4378 C   0  0  0  0  0  0  0  0  0  0  0  0
    8.1595   -6.2497   24.1467 O   0  0  0  0  0  0  0  0  0  0  0  0
    6.3975   -1.5942   23.6475 C   0  0  0  0  0  0  0  0  0  0  0  0
    7.1960   -0.3551   23.3702 C   0  0  0  0  0  0  0  0  0  0  0  0
    8.0012    0.2790   24.4655 C   0  0  0  0  0  0  0  0  0  0  0  0
    8.0078   -0.3260   25.8380 C   0  0  0  0  0  0  0  0  0  0  0  0
    7.2093   -1.5651   26.1153 C   0  0  0  0  0  0  0  0  0  0  0  0
    6.4042   -2.1992   25.0200 C   0  0  0  0  0  0  0  0  0  0  0  0
    5.5252   -1.5821   21.2003 C   0  0  0  0  0  0  0  0  0  0  0  0
    5.5923   -2.2283   22.5522 O   0  0  0  0  0  0  0  0  0  0  0  0
    8.3729   -3.6604   24.1605 C   0  0  0  0  0  0  0  0  0  0  0  0
    9.6953   -3.4532   24.8375 C   0  0  0  0  0  0  0  0  0  0  0  0
    9.9805   -4.1253   26.1478 C   0  0  0  0  0  0  0  0  0  0  0  0
   11.3029   -3.9180   26.8248 N   0  0  0  0  0  0  0  0  0  0  0  0
   12.3401   -3.0388   26.1915 C   0  0  0  0  0  0  0  0  0  0  0  0
   12.0549   -2.3667   24.8811 C   0  0  0  0  0  0  0  0  0  0  0  0
   13.0921   -1.4874   24.2478 C   0  0  0  0  0  0  0  0  0  0  0  0
   12.8069   -0.8153   22.9375 C   0  0  0  0  0  0  0  0  0  0  0  0
   11.4845   -1.0226   22.2605 C   0  0  0  0  0  0  0  0  0  0  0  0
   10.4473   -1.9018   22.8938 C   0  0  0  0  0  0  0  0  0  0  0  0
   10.7325   -2.5739   24.2041 C   0  0  0  0  0  0  0  0  0  0  0  0
 16 17  1  0  0  0
 17 10  1  0  0  0
 10 11  2  0  0  0
 11 12  1  0  0  0
 12 13  2  0  0  0
 13 14  1  0  0  0
 14 15  2  0  0  0
  1 15  1  0  0  0
  1  2  1  0  0  0
  2  3  1  0  0  0
  3  4  1  0  0  0
  3  5  1  0  0  0
  5  6  1  0  0  0
  6  7  1  0  0  0
  7  8  1  0  0  0
  8  9  2  0  0  0
  8 18  1  0  0  0
 18 19  1  0  0  0
 19 20  2  0  0  0
 20 21  1  0  0  0
 21 22  2  0  0  0
 22 23  1  0  0  0
 23 24  2  0  0  0
 24 25  1  0  0  0
 25 26  2  0  0  0
 26 27  1  0  0  0
 27 28  2  0  0  0
 15 10  1  0  0  0
  7  1  1  0  0  0
 28 19  1  0  0  0
 28 23  1  0  0  0
M  END
> <minimizedAffinity>
-6.99663

> <CNNscore>
0.4143045843

> <CNNaffinity>
5.9487428665

> <CNN_VS>
2.4645915031

> <CNNaffinity_variance>
0.1332501173

$$$$



 28 31  0  0  0  0  0  0  0  0999 V2000
    5.1904    2.0888   20.9083 C   0  0  0  0  0  0  0  0  0  0  0  0
    4.0091    3.0132   20.9188 C   0  0  0  0  0  0  0  0  0  0  0  0
    3.0576    3.0274   19.7593 C   0  0  0  0  0  0  0  0  0  0  0  0
    1.8763    3.9518   19.7697 C   0  0  0  0  0  0  0  0  0  0  0  0
    3.2874    2.1172   18.5893 C   0  0  0  0  0  0  0  0  0  0  0  0
    4.4686    1.1928   18.5789 C   0  0  0  0  0  0  0  0  0  0  0  0
    5.4202    1.1786   19.7384 N   0  0  0  0  0  0  0  0  0  0  0  0
    6.6014    0.2543   19.7280 C   0  0  0  0  0  0  0  0  0  0  0  0
    6.8312   -0.6560   18.5580 O   0  0  0  0  0  0  0  0  0  0  0  0
    5.8045    1.2974   23.3055 C   0  0  0  0  0  0  0  0  0  0  0  0
    6.7560    1.2832   24.4650 C   0  0  0  0  0  0  0  0  0  0  0  0
    8.0449    2.0464   24.3868 C   0  0  0  0  0  0  0  0  0  0  0  0
    8.3824    2.8237   23.1491 C   0  0  0  0  0  0  0  0  0  0  0  0
    7.4309    2.8379   21.9897 C   0  0  0  0  0  0  0  0  0  0  0  0
    6.1419    2.0747   22.0679 C   0  0  0  0  0  0  0  0  0  0  0  0
    3.9398    0.1694   24.7199 C   0  0  0  0  0  0  0  0  0  0  0  0
    4.5155    0.5342   23.3837 O   0  0  0  0  0  0  0  0  0  0  0  0
    7.5529    0.2401   20.8874 C   0  0  0  0  0  0  0  0  0  0  0  0
    7.6692   -0.9835   21.7473 C   0  0  0  0  0  0  0  0  0  0  0  0
    6.5185   -1.9401   21.8500 C   0  0  0  0  0  0  0  0  0  0  0  0
    6.6348   -3.1637   22.7099 N   0  0  0  0  0  0  0  0  0  0  0  0
    7.9018   -3.4306   23.4670 C   0  0  0  0  0  0  0  0  0  0  0  0
    9.0527   -2.4740   23.3643 C   0  0  0  0  0  0  0  0  0  0  0  0
   10.3197   -2.7409   24.1214 C   0  0  0  0  0  0  0  0  0  0  0  0
   11.4705   -1.7843   24.0186 C   0  0  0  0  0  0  0  0  0  0  0  0
   11.3542   -0.5607   23.1588 C   0  0  0  0  0  0  0  0  0  0  0  0
   10.0871   -0.2938   22.4017 C   0  0  0  0  0  0  0  0  0  0  0  0
    8.9364   -1.2504   22.5044 C   0  0  0  0  0  0  0  0  0  0  0  0
 16 17  1  0  0  0
 17 10  1  0  0  0
 10 11  2  0  0  0
 11 12  1  0  0  0
 12 13  2  0  0  0
 13 14  1  0  0  0
 14 15  2  0  0  0
  1 15  1  0  0  0
  1  2  1  0  0  0
  2  3  1  0  0  0
  3  4  1  0  0  0
  3  5  1  0  0  0
  5  6  1  0  0  0
  6  7  1  0  0  0
  7  8  1  0  0  0
  8  9  2  0  0  0
  8 18  1  0  0  0
 18 19  1  0  0  0
 19 20  2  0  0  0
 20 21  1  0  0  0
 21 22  2  0  0  0
 22 23  1  0  0  0
 23 24  2  0  0  0
 24 25  1  0  0  0
 25 26  2  0  0  0
 26 27  1  0  0  0
 27 28  2  0  0  0
 15 10  1  0  0  0
  7  1  1  0  0  0
 28 19  1  0  0  0
 28 23  1  0  0  0
M  END
> <minimizedAffinity>
-6.97995

> <CNNscore>
0.3767951131

> <CNNaffinity>
5.7385983467

> <CNN_VS>
2.1622757912

> <CNNaffinity_variance>
0.0715917200

$$$$



 28 31  0  0  0  0  0  0  0  0999 V2000
    6.8731   -1.2536   24.6263 C   0  0  0  0  0  0  0  0  0  0  0  0
    5.7269   -1.0492   25.5721 C   0  0  0  0  0  0  0  0  0  0  0  0
    4.4788   -0.3637   25.1010 C   0  0  0  0  0  0  0  0  0  0  0  0
    3.3326   -0.1594   26.0468 C   0  0  0  0  0  0  0  0  0  0  0  0
    4.3767    0.1176   23.6839 C   0  0  0  0  0  0  0  0  0  0  0  0
    5.5228   -0.0867   22.7381 C   0  0  0  0  0  0  0  0  0  0  0  0
    6.7710   -0.7723   23.2093 N   0  0  0  0  0  0  0  0  0  0  0  0
    7.9172   -0.9766   22.2635 C   0  0  0  0  0  0  0  0  0  0  0  0
    7.8151   -0.4954   20.8464 O   0  0  0  0  0  0  0  0  0  0  0  0
    8.2351   -3.4323   25.0112 C   0  0  0  0  0  0  0  0  0  0  0  0
    9.4833   -4.1178   25.4824 C   0  0  0  0  0  0  0  0  0  0  0  0
   10.6176   -3.3101   26.0400 C   0  0  0  0  0  0  0  0  0  0  0  0
   10.5038   -1.8170   26.1264 C   0  0  0  0  0  0  0  0  0  0  0  0
    9.2557   -1.1315   25.6552 C   0  0  0  0  0  0  0  0  0  0  0  0
    8.1213   -1.9391   25.0976 C   0  0  0  0  0  0  0  0  0  0  0  0
    7.0931   -4.6205   23.0027 C   0  0  0  0  0  0  0  0  0  0  0  0
    7.1007   -4.2399   24.4536 O   0  0  0  0  0  0  0  0  0  0  0  0
    9.1654   -1.6622   22.7346 C   0  0  0  0  0  0  0  0  0  0  0  0
   10.4869   -0.9582   22.6457 C   0  0  0  0  0  0  0  0  0  0  0  0
   11.7430   -1.7466   22.4209 C   0  0  0  0  0  0  0  0  0  0  0  0
   13.0646   -1.0426   22.3319 N   0  0  0  0  0  0  0  0  0  0  0  0
   13.1300    0.4497   22.4677 C   0  0  0  0  0  0  0  0  0  0  0  0
   11.8739    1.2382   22.6925 C   0  0  0  0  0  0  0  0  0  0  0  0
   11.9393    2.7306   22.8283 C   0  0  0  0  0  0  0  0  0  0  0  0
   10.6832    3.5190   23.0531 C   0  0  0  0  0  0  0  0  0  0  0  0
    9.3617    2.8150   23.1421 C   0  0  0  0  0  0  0  0  0  0  0  0
    9.2962    1.3227   23.0063 C   0  0  0  0  0  0  0  0  0  0  0  0
   10.5523    0.5343   22.7815 C   0  0  0  0  0  0  0  0  0  0  0  0
 16 17  1  0  0  0
 17 10  1  0  0  0
 10 11  2  0  0  0
 11 12  1  0  0  0
 12 13  2  0  0  0
 13 14  1  0  0  0
 14 15  2  0  0  0
  1 15  1  0  0  0
  1  2  1  0  0  0
  2  3  1  0  0  0
  3  4  1  0  0  0
  3  5  1  0  0  0
  5  6  1  0  0  0
  6  7  1  0  0  0
  7  8  1  0  0  0
  8  9  2  0  0  0
  8 18  1  0  0  0
 18 19  1  0  0  0
 19 20  2  0  0  0
 20 21  1  0  0  0
 21 22  2  0  0  0
 22 23  1  0  0  0
 23 24  2  0  0  0
 24 25  1  0  0  0
 25 26  2  0  0  0
 26 27  1  0  0  0
 27 28  2  0  0  0
 15 10  1  0  0  0
  7  1  1  0  0  0
 28 19  1  0  0  0
 28 23  1  0  0  0
M  END
> <minimizedAffinity>
-6.70050

> <CNNscore>
0.3732978702

> <CNNaffinity>
5.9056601524

> <CNN_VS>
2.2045702934

> <CNNaffinity_variance>
0.0668908730

$$$$



 28 31  0  0  0  0  0  0  0  0999 V2000
    5.8730   -3.8626   24.5788 C   0  0  0  0  0  0  0  0  0  0  0  0
    4.5755   -4.4702   24.1346 C   0  0  0  0  0  0  0  0  0  0  0  0
    4.5271   -5.9080   23.7099 C   0  0  0  0  0  0  0  0  0  0  0  0
    3.2296   -6.5156   23.2657 C   0  0  0  0  0  0  0  0  0  0  0  0
    5.7763   -6.7383   23.7293 C   0  0  0  0  0  0  0  0  0  0  0  0
    7.0738   -6.1307   24.1735 C   0  0  0  0  0  0  0  0  0  0  0  0
    7.1221   -4.6928   24.5983 N   0  0  0  0  0  0  0  0  0  0  0  0
    8.4196   -4.0853   25.0425 C   0  0  0  0  0  0  0  0  0  0  0  0
    9.6688   -4.9155   25.0619 O   0  0  0  0  0  0  0  0  0  0  0  0
    6.0966   -1.3451   23.9771 C   0  0  0  0  0  0  0  0  0  0  0  0
    6.1450    0.0927   24.4019 C   0  0  0  0  0  0  0  0  0  0  0  0
    6.0180    0.4507   25.8530 C   0  0  0  0  0  0  0  0  0  0  0  0
    5.8427   -0.6290   26.8793 C   0  0  0  0  0  0  0  0  0  0  0  0
    5.7943   -2.0667   26.4546 C   0  0  0  0  0  0  0  0  0  0  0  0
    5.9213   -2.4248   25.0035 C   0  0  0  0  0  0  0  0  0  0  0  0
    5.2106   -1.2039   21.5389 C   0  0  0  0  0  0  0  0  0  0  0  0
    6.2236   -1.7031   22.5260 O   0  0  0  0  0  0  0  0  0  0  0  0
    8.4680   -2.6475   25.4672 C   0  0  0  0  0  0  0  0  0  0  0  0
    9.6110   -1.7764   25.0371 C   0  0  0  0  0  0  0  0  0  0  0  0
    9.3621   -0.6028   24.1369 C   0  0  0  0  0  0  0  0  0  0  0  0
   10.5050    0.2683   23.7068 N   0  0  0  0  0  0  0  0  0  0  0  0
   11.8969   -0.0344   24.1770 C   0  0  0  0  0  0  0  0  0  0  0  0
   12.1458   -1.2081   25.0772 C   0  0  0  0  0  0  0  0  0  0  0  0
   13.5377   -1.5108   25.5474 C   0  0  0  0  0  0  0  0  0  0  0  0
   13.7866   -2.6845   26.4476 C   0  0  0  0  0  0  0  0  0  0  0  0
   12.6436   -3.5555   26.8777 C   0  0  0  0  0  0  0  0  0  0  0  0
   11.2518   -3.2528   26.4075 C   0  0  0  0  0  0  0  0  0  0  0  0
   11.0029   -2.0792   25.5073 C   0  0  0  0  0  0  0  0  0  0  0  0
 16 17  1  0  0  0
 17 10  1  0  0  0
 10 11  2  0  0  0
 11 12  1  0  0  0
 12 13  2  0  0  0
 13 14  1  0  0  0
 14 15  2  0  0  0
  1 15  1  0  0  0
  1  2  1  0  0  0
  2  3  1  0  0  0
  3  4  1  0  0  0
  3  5  1  0  0  0
  5  6  1  0  0  0
  6  7  1  0  0  0
  7  8  1  0  0  0
  8  9  2  0  0  0
  8 18  1  0  0  0
 18 19  1  0  0  0
 19 20  2  0  0  0
 20 21  1  0  0  0
 21 22  2  0  0  0
 22 23  1  0  0  0
 23 24  2  0  0  0
 24 25  1  0  0  0
 25 26  2  0  0  0
 26 27  1  0  0  0
 27 28  2  0  0  0
 15 10  1  0  0  0
  7  1  1  0  0  0
 28 19  1  0  0  0
 28 23  1  0  0  0
M  END
> <minimizedAffinity>
-6.79075

> <CNNscore>
0.3326848745

> <CNNaffinity>
6.0148868561

> <CNN_VS>
2.0010619164

> <CNNaffinity_variance>
0.0750527531

$$$$



 28 31  0  0  0  0  0  0  0  0999 V2000
    7.9204   -1.5385   22.9906 C   0  0  0  0  0  0  0  0  0  0  0  0
    7.1523   -2.7976   23.2640 C   0  0  0  0  0  0  0  0  0  0  0  0
    5.8802   -3.0767   22.5199 C   0  0  0  0  0  0  0  0  0  0  0  0
    5.1122   -4.3358   22.7932 C   0  0  0  0  0  0  0  0  0  0  0  0
    5.3761   -2.0966   21.5023 C   0  0  0  0  0  0  0  0  0  0  0  0
    6.1441   -0.8375   21.2289 C   0  0  0  0  0  0  0  0  0  0  0  0
    7.4163   -0.5584   21.9731 N   0  0  0  0  0  0  0  0  0  0  0  0
    8.1843    0.7007   21.6998 C   0  0  0  0  0  0  0  0  0  0  0  0
    7.6801    1.6808   20.6822 O   0  0  0  0  0  0  0  0  0  0  0  0
   10.0562   -2.3957   24.1963 C   0  0  0  0  0  0  0  0  0  0  0  0
   11.3283   -2.1166   24.9405 C   0  0  0  0  0  0  0  0  0  0  0  0
   11.7367   -0.7012   25.2232 C   0  0  0  0  0  0  0  0  0  0  0  0
   10.8731    0.4350   24.7617 C   0  0  0  0  0  0  0  0  0  0  0  0
    9.6010    0.1560   24.0175 C   0  0  0  0  0  0  0  0  0  0  0  0
    9.1925   -1.2594   23.7348 C   0  0  0  0  0  0  0  0  0  0  0  0
    9.0859   -4.6633   25.0128 C   0  0  0  0  0  0  0  0  0  0  0  0
    9.6477   -3.8110   23.9137 O   0  0  0  0  0  0  0  0  0  0  0  0
    9.4564    0.9798   22.4439 C   0  0  0  0  0  0  0  0  0  0  0  0
   10.0072    2.3742   22.4912 C   0  0  0  0  0  0  0  0  0  0  0  0
   11.3947    2.6499   21.9927 C   0  0  0  0  0  0  0  0  0  0  0  0
   11.9455    4.0443   22.0400 N   0  0  0  0  0  0  0  0  0  0  0  0
   11.1087    5.1631   22.5858 C   0  0  0  0  0  0  0  0  0  0  0  0
    9.7210    4.8875   23.0844 C   0  0  0  0  0  0  0  0  0  0  0  0
    8.8842    6.0063   23.6302 C   0  0  0  0  0  0  0  0  0  0  0  0
    7.4966    5.7306   24.1287 C   0  0  0  0  0  0  0  0  0  0  0  0
    6.9458    4.3362   24.0814 C   0  0  0  0  0  0  0  0  0  0  0  0
    7.7826    3.2174   23.5356 C   0  0  0  0  0  0  0  0  0  0  0  0
    9.1702    3.4931   23.0371 C   0  0  0  0  0  0  0  0  0  0  0  0
 16 17  1  0  0  0
 17 10  1  0  0  0
 10 11  2  0  0  0
 11 12  1  0  0  0
 12 13  2  0  0  0
 13 14  1  0  0  0
 14 15  2  0  0  0
  1 15  1  0  0  0
  1  2  1  0  0  0
  2  3  1  0  0  0
  3  4  1  0  0  0
  3  5  1  0  0  0
  5  6  1  0  0  0
  6  7  1  0  0  0
  7  8  1  0  0  0
  8  9  2  0  0  0
  8 18  1  0  0  0
 18 19  1  0  0  0
 19 20  2  0  0  0
 20 21  1  0  0  0
 21 22  2  0  0  0
 22 23  1  0  0  0
 23 24  2  0  0  0
 24 25  1  0  0  0
 25 26  2  0  0  0
 26 27  1  0  0  0
 27 28  2  0  0  0
 15 10  1  0  0  0
  7  1  1  0  0  0
 28 19  1  0  0  0
 28 23  1  0  0  0
M  END
> <minimizedAffinity>
-5.03086

> <CNNscore>
0.3298875093

> <CNNaffinity>
5.7753920555

> <CNN_VS>
1.9052296877

> <CNNaffinity_variance>
0.4471858144

$$$$
