


 26 29  0  0  0  0  0  0  0  0999 V2000
   -8.0776   -4.0951  -24.9003 N   0  0  0  0  0  0  0  0  0  0  0  0
   -7.7786   -2.8633  -24.0984 C   0  0  0  0  0  0  0  0  0  0  0  0
   -7.0826   -3.7027  -23.0684 C   0  0  0  0  0  0  0  0  0  0  0  0
   -7.3816   -4.9346  -23.8702 C   0  0  0  0  0  0  0  0  0  0  0  0
   -6.8962   -2.3546  -22.4375 C   0  0  0  0  0  0  0  0  0  0  0  0
   -7.3807   -1.0474  -22.9913 O   0  0  0  0  0  0  0  0  0  0  0  0
   -6.1404   -2.5431  -21.1557 N   0  0  0  0  0  0  0  0  0  0  0  0
   -5.8596   -4.0078  -20.9944 C   0  0  0  0  0  0  0  0  0  0  0  0
   -5.1254   -4.6441  -19.8516 O   0  0  0  0  0  0  0  0  0  0  0  0
   -6.4420   -4.7244  -22.1765 N   0  0  0  0  0  0  0  0  0  0  0  0
   -6.3923   -6.2031  -22.4233 C   0  0  0  0  0  0  0  0  0  0  0  0
   -5.7362   -1.4577  -20.2026 C   0  0  0  0  0  0  0  0  0  0  0  0
   -6.2882   -1.4403  -18.8080 C   0  0  0  0  0  0  0  0  0  0  0  0
   -5.8841   -0.3548  -17.8549 N   0  0  0  0  0  0  0  0  0  0  0  0
   -4.9279    0.7132  -18.2964 C   0  0  0  0  0  0  0  0  0  0  0  0
   -4.3758    0.6958  -19.6910 C   0  0  0  0  0  0  0  0  0  0  0  0
   -3.4196    1.7639  -20.1325 C   0  0  0  0  0  0  0  0  0  0  0  0
   -2.8676    1.7465  -21.5270 C   0  0  0  0  0  0  0  0  0  0  0  0
   -3.2717    0.6610  -22.4802 C   0  0  0  0  0  0  0  0  0  0  0  0
   -4.2279   -0.4070  -22.0387 C   0  0  0  0  0  0  0  0  0  0  0  0
   -4.7799   -0.3896  -20.6441 C   0  0  0  0  0  0  0  0  0  0  0  0
   -8.7811   -4.3728  -26.1957 S   0  0  0  0  0  0  0  0  0  0  0  0
   -8.3840   -5.8163  -26.1018 O   0  0  0  0  0  0  0  0  0  0  0  0
   -9.1783   -2.9294  -26.2895 O   0  0  0  0  0  0  0  0  0  0  0  0
   -9.8960   -6.0514  -27.8357 C   0  0  0  0  0  0  0  0  0  0  0  0
   -9.4846   -4.6507  -27.4910 C   0  0  0  0  0  0  0  0  0  0  0  0
 25 26  1  0  0  0
 26 22  1  0  0  0
 22 23  2  0  0  0
 22 24  2  0  0  0
 22  1  1  0  0  0
  1  2  1  0  0  0
  2  3  1  0  0  0
  3  4  1  0  0  0
  3  5  1  0  0  0
  5  6  2  0  0  0
  5  7  1  0  0  0
  7 12  1  0  0  0
 12 13  2  0  0  0
 13 14  1  0  0  0
 14 15  2  0  0  0
 15 16  1  0  0  0
 16 17  2  0  0  0
 17 18  1  0  0  0
 18 19  2  0  0  0
 19 20  1  0  0  0
 20 21  2  0  0  0
  7  8  1  0  0  0
  8  9  2  0  0  0
  8 10  1  0  0  0
 10 11  1  0  0  0
  4  1  1  0  0  0
 21 12  1  0  0  0
 10  3  1  0  0  0
 21 16  1  0  0  0
M  END
> <minimizedAffinity>
-7.05167

> <CNNscore>
0.8705525994

> <CNNaffinity>
5.7382025719

> <CNN_VS>
4.9954071045

> <CNNaffinity_variance>
0.0144101856

$$$$



 26 29  0  0  0  0  0  0  0  0999 V2000
   -8.1390   -2.1618  -22.2538 N   0  0  0  0  0  0  0  0  0  0  0  0
   -8.4739   -0.7013  -22.1842 C   0  0  0  0  0  0  0  0  0  0  0  0
   -9.8202   -0.9816  -22.7832 C   0  0  0  0  0  0  0  0  0  0  0  0
   -9.4854   -2.4420  -22.8528 C   0  0  0  0  0  0  0  0  0  0  0  0
   -9.9404    0.5048  -22.6208 C   0  0  0  0  0  0  0  0  0  0  0  0
   -8.8928    1.4175  -22.0556 O   0  0  0  0  0  0  0  0  0  0  0  0
  -11.2920    0.9182  -23.1230 N   0  0  0  0  0  0  0  0  0  0  0  0
  -12.0072   -0.3126  -23.5957 C   0  0  0  0  0  0  0  0  0  0  0  0
  -13.3894   -0.3609  -24.1764 O   0  0  0  0  0  0  0  0  0  0  0  0
  -11.0977   -1.4868  -23.3857 N   0  0  0  0  0  0  0  0  0  0  0  0
  -11.4106   -2.9153  -23.7196 C   0  0  0  0  0  0  0  0  0  0  0  0
  -11.8334    2.3169  -23.1480 C   0  0  0  0  0  0  0  0  0  0  0  0
  -12.9836    2.6919  -22.2612 C   0  0  0  0  0  0  0  0  0  0  0  0
  -13.5249    4.0906  -22.2862 N   0  0  0  0  0  0  0  0  0  0  0  0
  -12.9161    5.1143  -23.1980 C   0  0  0  0  0  0  0  0  0  0  0  0
  -11.7659    4.7393  -24.0849 C   0  0  0  0  0  0  0  0  0  0  0  0
  -11.1571    5.7629  -24.9967 C   0  0  0  0  0  0  0  0  0  0  0  0
  -10.0069    5.3879  -25.8835 C   0  0  0  0  0  0  0  0  0  0  0  0
   -9.4656    3.9892  -25.8585 C   0  0  0  0  0  0  0  0  0  0  0  0
  -10.0744    2.9656  -24.9466 C   0  0  0  0  0  0  0  0  0  0  0  0
  -11.2245    3.3406  -24.0599 C   0  0  0  0  0  0  0  0  0  0  0  0
   -6.9502   -2.9965  -21.8794 S   0  0  0  0  0  0  0  0  0  0  0  0
   -6.5205   -1.9449  -20.8998 O   0  0  0  0  0  0  0  0  0  0  0  0
   -7.3799   -4.0480  -22.8590 O   0  0  0  0  0  0  0  0  0  0  0  0
   -5.7155   -5.2824  -21.8811 C   0  0  0  0  0  0  0  0  0  0  0  0
   -5.7614   -3.8310  -21.5050 C   0  0  0  0  0  0  0  0  0  0  0  0
 25 26  1  0  0  0
 26 22  1  0  0  0
 22 23  2  0  0  0
 22 24  2  0  0  0
 22  1  1  0  0  0
  1  2  1  0  0  0
  2  3  1  0  0  0
  3  4  1  0  0  0
  3  5  1  0  0  0
  5  6  2  0  0  0
  5  7  1  0  0  0
  7 12  1  0  0  0
 12 13  2  0  0  0
 13 14  1  0  0  0
 14 15  2  0  0  0
 15 16  1  0  0  0
 16 17  2  0  0  0
 17 18  1  0  0  0
 18 19  2  0  0  0
 19 20  1  0  0  0
 20 21  2  0  0  0
  7  8  1  0  0  0
  8  9  2  0  0  0
  8 10  1  0  0  0
 10 11  1  0  0  0
  4  1  1  0  0  0
 21 12  1  0  0  0
 10  3  1  0  0  0
 21 16  1  0  0  0
M  END
> <minimizedAffinity>
-6.54653

> <CNNscore>
0.6226639152

> <CNNaffinity>
5.3731751442

> <CNN_VS>
3.3456823826

> <CNNaffinity_variance>
0.1479751766

$$$$



 26 29  0  0  0  0  0  0  0  0999 V2000
   -2.8495    1.3234  -20.3060 N   0  0  0  0  0  0  0  0  0  0  0  0
   -3.6141    0.5825  -21.3626 C   0  0  0  0  0  0  0  0  0  0  0  0
   -4.6365    0.1809  -20.3412 C   0  0  0  0  0  0  0  0  0  0  0  0
   -3.8720    0.9218  -19.2845 C   0  0  0  0  0  0  0  0  0  0  0  0
   -5.2317   -0.4881  -21.5446 C   0  0  0  0  0  0  0  0  0  0  0  0
   -4.6677   -0.4666  -22.9344 O   0  0  0  0  0  0  0  0  0  0  0  0
   -6.4898   -1.1823  -21.1142 N   0  0  0  0  0  0  0  0  0  0  0  0
   -6.6721   -0.9424  -19.6448 C   0  0  0  0  0  0  0  0  0  0  0  0
   -7.8016   -1.4549  -18.8013 O   0  0  0  0  0  0  0  0  0  0  0  0
   -5.5267   -0.0999  -19.1670 N   0  0  0  0  0  0  0  0  0  0  0  0
   -5.3097    0.3779  -17.7618 C   0  0  0  0  0  0  0  0  0  0  0  0
   -7.4049   -1.9769  -21.9981 C   0  0  0  0  0  0  0  0  0  0  0  0
   -7.0541   -3.3883  -22.3652 C   0  0  0  0  0  0  0  0  0  0  0  0
   -7.9692   -4.1829  -23.2490 N   0  0  0  0  0  0  0  0  0  0  0  0
   -9.2351   -3.5661  -23.7658 C   0  0  0  0  0  0  0  0  0  0  0  0
   -9.5859   -2.1546  -23.3988 C   0  0  0  0  0  0  0  0  0  0  0  0
  -10.8517   -1.5378  -23.9156 C   0  0  0  0  0  0  0  0  0  0  0  0
  -11.2025   -0.1263  -23.5485 C   0  0  0  0  0  0  0  0  0  0  0  0
  -10.2874    0.6683  -22.6647 C   0  0  0  0  0  0  0  0  0  0  0  0
   -9.0215    0.0514  -22.1479 C   0  0  0  0  0  0  0  0  0  0  0  0
   -8.6708   -1.3600  -22.5149 C   0  0  0  0  0  0  0  0  0  0  0  0
   -1.5859    2.1313  -20.2809 S   0  0  0  0  0  0  0  0  0  0  0  0
   -0.8464    0.9944  -20.9220 O   0  0  0  0  0  0  0  0  0  0  0  0
   -2.3253    3.2681  -19.6399 O   0  0  0  0  0  0  0  0  0  0  0  0
    0.9953    2.2795  -20.5371 C   0  0  0  0  0  0  0  0  0  0  0  0
   -0.3222    2.9391  -20.2560 C   0  0  0  0  0  0  0  0  0  0  0  0
 25 26  1  0  0  0
 26 22  1  0  0  0
 22 23  2  0  0  0
 22 24  2  0  0  0
 22  1  1  0  0  0
  1  2  1  0  0  0
  2  3  1  0  0  0
  3  4  1  0  0  0
  3  5  1  0  0  0
  5  6  2  0  0  0
  5  7  1  0  0  0
  7 12  1  0  0  0
 12 13  2  0  0  0
 13 14  1  0  0  0
 14 15  2  0  0  0
 15 16  1  0  0  0
 16 17  2  0  0  0
 17 18  1  0  0  0
 18 19  2  0  0  0
 19 20  1  0  0  0
 20 21  2  0  0  0
  7  8  1  0  0  0
  8  9  2  0  0  0
  8 10  1  0  0  0
 10 11  1  0  0  0
  4  1  1  0  0  0
 21 12  1  0  0  0
 10  3  1  0  0  0
 21 16  1  0  0  0
M  END
> <minimizedAffinity>
-7.74778

> <CNNscore>
0.5168451667

> <CNNaffinity>
5.2465043068

> <CNN_VS>
2.7116303444

> <CNNaffinity_variance>
0.1549220979

$$$$



 26 29  0  0  0  0  0  0  0  0999 V2000
   -8.6486   -4.5251  -24.4891 N   0  0  0  0  0  0  0  0  0  0  0  0
   -7.6462   -4.1508  -23.4378 C   0  0  0  0  0  0  0  0  0  0  0  0
   -8.3774   -2.8630  -23.1992 C   0  0  0  0  0  0  0  0  0  0  0  0
   -9.3798   -3.2373  -24.2504 C   0  0  0  0  0  0  0  0  0  0  0  0
   -7.2730   -2.6948  -22.1982 C   0  0  0  0  0  0  0  0  0  0  0  0
   -6.1664   -3.6723  -21.9337 O   0  0  0  0  0  0  0  0  0  0  0  0
   -7.4694   -1.3774  -21.5082 N   0  0  0  0  0  0  0  0  0  0  0  0
   -8.6952   -0.7315  -22.0828 C   0  0  0  0  0  0  0  0  0  0  0  0
   -9.2606    0.5989  -21.6826 O   0  0  0  0  0  0  0  0  0  0  0  0
   -9.2564   -1.6497  -23.1278 N   0  0  0  0  0  0  0  0  0  0  0  0
  -10.4815   -1.3985  -23.9561 C   0  0  0  0  0  0  0  0  0  0  0  0
   -6.5937   -0.8063  -20.4326 C   0  0  0  0  0  0  0  0  0  0  0  0
   -6.9544   -1.0009  -18.9897 C   0  0  0  0  0  0  0  0  0  0  0  0
   -6.0787   -0.4298  -17.9141 N   0  0  0  0  0  0  0  0  0  0  0  0
   -4.8423    0.3360  -18.2814 C   0  0  0  0  0  0  0  0  0  0  0  0
   -4.4815    0.5306  -19.7243 C   0  0  0  0  0  0  0  0  0  0  0  0
   -3.2452    1.2964  -20.0916 C   0  0  0  0  0  0  0  0  0  0  0  0
   -2.8845    1.4910  -21.5345 C   0  0  0  0  0  0  0  0  0  0  0  0
   -3.7602    0.9199  -22.6101 C   0  0  0  0  0  0  0  0  0  0  0  0
   -4.9965    0.1541  -22.2428 C   0  0  0  0  0  0  0  0  0  0  0  0
   -5.3572   -0.0405  -20.7999 C   0  0  0  0  0  0  0  0  0  0  0  0
   -8.8405   -5.7003  -25.4012 S   0  0  0  0  0  0  0  0  0  0  0  0
  -10.0907   -5.0743  -25.9447 O   0  0  0  0  0  0  0  0  0  0  0  0
   -7.5903   -6.3263  -24.8579 O   0  0  0  0  0  0  0  0  0  0  0  0
   -8.7396   -6.7433  -27.7787 C   0  0  0  0  0  0  0  0  0  0  0  0
   -9.0324   -6.8754  -26.3135 C   0  0  0  0  0  0  0  0  0  0  0  0
 25 26  1  0  0  0
 26 22  1  0  0  0
 22 23  2  0  0  0
 22 24  2  0  0  0
 22  1  1  0  0  0
  1  2  1  0  0  0
  2  3  1  0  0  0
  3  4  1  0  0  0
  3  5  1  0  0  0
  5  6  2  0  0  0
  5  7  1  0  0  0
  7 12  1  0  0  0
 12 13  2  0  0  0
 13 14  1  0  0  0
 14 15  2  0  0  0
 15 16  1  0  0  0
 16 17  2  0  0  0
 17 18  1  0  0  0
 18 19  2  0  0  0
 19 20  1  0  0  0
 20 21  2  0  0  0
  7  8  1  0  0  0
  8  9  2  0  0  0
  8 10  1  0  0  0
 10 11  1  0  0  0
  4  1  1  0  0  0
 21 12  1  0  0  0
 10  3  1  0  0  0
 21 16  1  0  0  0
M  END
> <minimizedAffinity>
-7.55432

> <CNNscore>
0.4783855081

> <CNNaffinity>
5.3570928574

> <CNN_VS>
2.5627555847

> <CNNaffinity_variance>
0.1010104790

$$$$



 26 29  0  0  0  0  0  0  0  0999 V2000
   -4.4161    0.6232  -21.4187 N   0  0  0  0  0  0  0  0  0  0  0  0
   -5.8760    0.4013  -21.1556 C   0  0  0  0  0  0  0  0  0  0  0  0
   -6.0240   -0.2295  -22.5084 C   0  0  0  0  0  0  0  0  0  0  0  0
   -4.5641   -0.0076  -22.7717 C   0  0  0  0  0  0  0  0  0  0  0  0
   -7.4428   -0.3499  -22.0368 C   0  0  0  0  0  0  0  0  0  0  0  0
   -7.9737    0.1114  -20.7119 O   0  0  0  0  0  0  0  0  0  0  0  0
   -8.2376   -1.0126  -23.1227 N   0  0  0  0  0  0  0  0  0  0  0  0
   -7.3099   -1.3018  -24.2654 C   0  0  0  0  0  0  0  0  0  0  0  0
   -7.6845   -1.9595  -25.5604 O   0  0  0  0  0  0  0  0  0  0  0  0
   -5.9419   -0.8178  -23.8858 N   0  0  0  0  0  0  0  0  0  0  0  0
   -4.7083   -0.9065  -24.7345 C   0  0  0  0  0  0  0  0  0  0  0  0
   -9.7028   -1.3304  -23.0743 C   0  0  0  0  0  0  0  0  0  0  0  0
  -10.1573   -2.7330  -22.7982 C   0  0  0  0  0  0  0  0  0  0  0  0
  -11.6224   -3.0508  -22.7499 N   0  0  0  0  0  0  0  0  0  0  0  0
  -12.6331   -1.9660  -22.9776 C   0  0  0  0  0  0  0  0  0  0  0  0
  -12.1786   -0.5634  -23.2537 C   0  0  0  0  0  0  0  0  0  0  0  0
  -13.1892    0.5213  -23.4814 C   0  0  0  0  0  0  0  0  0  0  0  0
  -12.7347    1.9239  -23.7575 C   0  0  0  0  0  0  0  0  0  0  0  0
  -11.2695    2.2417  -23.8058 C   0  0  0  0  0  0  0  0  0  0  0  0
  -10.2589    1.1569  -23.5781 C   0  0  0  0  0  0  0  0  0  0  0  0
  -10.7134   -0.2456  -23.3020 C   0  0  0  0  0  0  0  0  0  0  0  0
   -3.2789    1.2260  -20.6483 S   0  0  0  0  0  0  0  0  0  0  0  0
   -2.3653    0.9937  -21.8152 O   0  0  0  0  0  0  0  0  0  0  0  0
   -4.1925    1.4584  -19.4815 O   0  0  0  0  0  0  0  0  0  0  0  0
   -0.7501    1.7830  -20.4361 C   0  0  0  0  0  0  0  0  0  0  0  0
   -2.1417    1.8289  -19.8780 C   0  0  0  0  0  0  0  0  0  0  0  0
 25 26  1  0  0  0
 26 22  1  0  0  0
 22 23  2  0  0  0
 22 24  2  0  0  0
 22  1  1  0  0  0
  1  2  1  0  0  0
  2  3  1  0  0  0
  3  4  1  0  0  0
  3  5  1  0  0  0
  5  6  2  0  0  0
  5  7  1  0  0  0
  7 12  1  0  0  0
 12 13  2  0  0  0
 13 14  1  0  0  0
 14 15  2  0  0  0
 15 16  1  0  0  0
 16 17  2  0  0  0
 17 18  1  0  0  0
 18 19  2  0  0  0
 19 20  1  0  0  0
 20 21  2  0  0  0
  7  8  1  0  0  0
  8  9  2  0  0  0
  8 10  1  0  0  0
 10 11  1  0  0  0
  4  1  1  0  0  0
 21 12  1  0  0  0
 10  3  1  0  0  0
 21 16  1  0  0  0
M  END
> <minimizedAffinity>
-6.87745

> <CNNscore>
0.4465574324

> <CNNaffinity>
4.9790391922

> <CNN_VS>
2.2234270573

> <CNNaffinity_variance>
0.1072053164

$$$$



 26 29  0  0  0  0  0  0  0  0999 V2000
   -6.9424   -5.4455  -24.7931 N   0  0  0  0  0  0  0  0  0  0  0  0
   -8.3483   -4.9348  -24.9051 C   0  0  0  0  0  0  0  0  0  0  0  0
   -8.1042   -4.0098  -23.7498 C   0  0  0  0  0  0  0  0  0  0  0  0
   -6.6983   -4.5204  -23.6378 C   0  0  0  0  0  0  0  0  0  0  0  0
   -9.5311   -3.6501  -24.0411 C   0  0  0  0  0  0  0  0  0  0  0  0
  -10.3867   -4.2425  -25.1213 O   0  0  0  0  0  0  0  0  0  0  0  0
   -9.9520   -2.5940  -23.0626 N   0  0  0  0  0  0  0  0  0  0  0  0
   -8.7853   -2.3010  -22.1665 C   0  0  0  0  0  0  0  0  0  0  0  0
   -8.7642   -1.3074  -21.0430 O   0  0  0  0  0  0  0  0  0  0  0  0
   -7.6433   -3.1760  -22.5912 N   0  0  0  0  0  0  0  0  0  0  0  0
   -6.2799   -3.2110  -21.9669 C   0  0  0  0  0  0  0  0  0  0  0  0
  -11.3024   -1.9449  -22.9925 C   0  0  0  0  0  0  0  0  0  0  0  0
  -12.4985   -2.7457  -22.5706 C   0  0  0  0  0  0  0  0  0  0  0  0
  -13.8489   -2.0966  -22.5004 N   0  0  0  0  0  0  0  0  0  0  0  0
  -14.0033   -0.6467  -22.8522 C   0  0  0  0  0  0  0  0  0  0  0  0
  -12.8072    0.1542  -23.2742 C   0  0  0  0  0  0  0  0  0  0  0  0
  -12.9616    1.6042  -23.6260 C   0  0  0  0  0  0  0  0  0  0  0  0
  -11.7656    2.4050  -24.0479 C   0  0  0  0  0  0  0  0  0  0  0  0
  -10.4151    1.7559  -24.1180 C   0  0  0  0  0  0  0  0  0  0  0  0
  -10.2607    0.3060  -23.7662 C   0  0  0  0  0  0  0  0  0  0  0  0
  -11.4568   -0.4949  -23.3443 C   0  0  0  0  0  0  0  0  0  0  0  0
   -6.1207   -6.4607  -25.5308 S   0  0  0  0  0  0  0  0  0  0  0  0
   -7.3753   -7.1022  -26.0452 O   0  0  0  0  0  0  0  0  0  0  0  0
   -4.8661   -5.8193  -25.0164 O   0  0  0  0  0  0  0  0  0  0  0  0
   -4.2526   -8.2664  -25.5403 C   0  0  0  0  0  0  0  0  0  0  0  0
   -5.2991   -7.4760  -26.2685 C   0  0  0  0  0  0  0  0  0  0  0  0
 25 26  1  0  0  0
 26 22  1  0  0  0
 22 23  2  0  0  0
 22 24  2  0  0  0
 22  1  1  0  0  0
  1  2  1  0  0  0
  2  3  1  0  0  0
  3  4  1  0  0  0
  3  5  1  0  0  0
  5  6  2  0  0  0
  5  7  1  0  0  0
  7 12  1  0  0  0
 12 13  2  0  0  0
 13 14  1  0  0  0
 14 15  2  0  0  0
 15 16  1  0  0  0
 16 17  2  0  0  0
 17 18  1  0  0  0
 18 19  2  0  0  0
 19 20  1  0  0  0
 20 21  2  0  0  0
  7  8  1  0  0  0
  8  9  2  0  0  0
  8 10  1  0  0  0
 10 11  1  0  0  0
  4  1  1  0  0  0
 21 12  1  0  0  0
 10  3  1  0  0  0
 21 16  1  0  0  0
M  END
> <minimizedAffinity>
-7.02518

> <CNNscore>
0.4456870258

> <CNNaffinity>
5.2814731598

> <CNN_VS>
2.3538839817

> <CNNaffinity_variance>
0.0789754540

$$$$



 26 29  0  0  0  0  0  0  0  0999 V2000
   -3.0488    1.1692  -20.3879 N   0  0  0  0  0  0  0  0  0  0  0  0
   -3.8711    0.4912  -21.4434 C   0  0  0  0  0  0  0  0  0  0  0  0
   -4.8694    0.0806  -20.4020 C   0  0  0  0  0  0  0  0  0  0  0  0
   -4.0473    0.7585  -19.3464 C   0  0  0  0  0  0  0  0  0  0  0  0
   -5.5253   -0.5249  -21.6075 C   0  0  0  0  0  0  0  0  0  0  0  0
   -5.0090   -0.4668  -23.0147 O   0  0  0  0  0  0  0  0  0  0  0  0
   -6.7882   -1.1986  -21.1589 N   0  0  0  0  0  0  0  0  0  0  0  0
   -6.9128   -1.0095  -19.6761 C   0  0  0  0  0  0  0  0  0  0  0  0
   -8.0275   -1.5212  -18.8126 O   0  0  0  0  0  0  0  0  0  0  0  0
   -5.7269   -0.2190  -19.2083 N   0  0  0  0  0  0  0  0  0  0  0  0
   -5.4476    0.1987  -17.7950 C   0  0  0  0  0  0  0  0  0  0  0  0
   -7.7564   -1.9325  -22.0386 C   0  0  0  0  0  0  0  0  0  0  0  0
   -9.0449   -1.2800  -22.4436 C   0  0  0  0  0  0  0  0  0  0  0  0
  -10.0132   -2.0139  -23.3233 N   0  0  0  0  0  0  0  0  0  0  0  0
   -9.6930   -3.4003  -23.7980 C   0  0  0  0  0  0  0  0  0  0  0  0
   -8.4044   -4.0528  -23.3929 C   0  0  0  0  0  0  0  0  0  0  0  0
   -8.0842   -5.4392  -23.8676 C   0  0  0  0  0  0  0  0  0  0  0  0
   -6.7958   -6.0917  -23.4626 C   0  0  0  0  0  0  0  0  0  0  0  0
   -5.8275   -5.3578  -22.5829 C   0  0  0  0  0  0  0  0  0  0  0  0
   -6.1477   -3.9714  -22.1082 C   0  0  0  0  0  0  0  0  0  0  0  0
   -7.4362   -3.3189  -22.5133 C   0  0  0  0  0  0  0  0  0  0  0  0
   -1.7615    1.9390  -20.3777 S   0  0  0  0  0  0  0  0  0  0  0  0
   -2.4056    3.0049  -19.5416 O   0  0  0  0  0  0  0  0  0  0  0  0
   -1.1174    0.8731  -21.2139 O   0  0  0  0  0  0  0  0  0  0  0  0
    0.8315    1.9893  -20.5335 C   0  0  0  0  0  0  0  0  0  0  0  0
   -0.4742    2.7089  -20.3675 C   0  0  0  0  0  0  0  0  0  0  0  0
 25 26  1  0  0  0
 26 22  1  0  0  0
 22 23  2  0  0  0
 22 24  2  0  0  0
 22  1  1  0  0  0
  1  2  1  0  0  0
  2  3  1  0  0  0
  3  4  1  0  0  0
  3  5  1  0  0  0
  5  6  2  0  0  0
  5  7  1  0  0  0
  7 12  1  0  0  0
 12 13  2  0  0  0
 13 14  1  0  0  0
 14 15  2  0  0  0
 15 16  1  0  0  0
 16 17  2  0  0  0
 17 18  1  0  0  0
 18 19  2  0  0  0
 19 20  1  0  0  0
 20 21  2  0  0  0
  7  8  1  0  0  0
  8  9  2  0  0  0
  8 10  1  0  0  0
 10 11  1  0  0  0
  4  1  1  0  0  0
 21 12  1  0  0  0
 10  3  1  0  0  0
 21 16  1  0  0  0
M  END
> <minimizedAffinity>
-7.38525

> <CNNscore>
0.4363426268

> <CNNaffinity>
5.1972374916

> <CNN_VS>
2.2677762508

> <CNNaffinity_variance>
0.0328948461

$$$$



 26 29  0  0  0  0  0  0  0  0999 V2000
   -2.7131    1.3683  -20.3091 N   0  0  0  0  0  0  0  0  0  0  0  0
   -3.4284    0.6401  -21.4082 C   0  0  0  0  0  0  0  0  0  0  0  0
   -4.4791    0.1997  -20.4325 C   0  0  0  0  0  0  0  0  0  0  0  0
   -3.7639    0.9278  -19.3334 C   0  0  0  0  0  0  0  0  0  0  0  0
   -5.0212   -0.4507  -21.6707 C   0  0  0  0  0  0  0  0  0  0  0  0
   -4.4097   -0.3888  -23.0390 O   0  0  0  0  0  0  0  0  0  0  0  0
   -6.2822   -1.1738  -21.3005 N   0  0  0  0  0  0  0  0  0  0  0  0
   -6.5194   -0.9703  -19.8334 C   0  0  0  0  0  0  0  0  0  0  0  0
   -7.6691   -1.5193  -19.0417 O   0  0  0  0  0  0  0  0  0  0  0  0
   -5.4050   -0.1215  -19.2969 N   0  0  0  0  0  0  0  0  0  0  0  0
   -5.2448    0.3274  -17.8747 C   0  0  0  0  0  0  0  0  0  0  0  0
   -7.1530   -1.9620  -22.2334 C   0  0  0  0  0  0  0  0  0  0  0  0
   -8.2364   -1.2736  -23.0095 C   0  0  0  0  0  0  0  0  0  0  0  0
   -9.1072   -2.0618  -23.9425 N   0  0  0  0  0  0  0  0  0  0  0  0
   -8.8947   -3.5383  -24.0994 C   0  0  0  0  0  0  0  0  0  0  0  0
   -7.8112   -4.2267  -23.3233 C   0  0  0  0  0  0  0  0  0  0  0  0
   -7.5987   -5.7032  -23.4801 C   0  0  0  0  0  0  0  0  0  0  0  0
   -6.5153   -6.3916  -22.7040 C   0  0  0  0  0  0  0  0  0  0  0  0
   -5.6445   -5.6034  -21.7710 C   0  0  0  0  0  0  0  0  0  0  0  0
   -5.8570   -4.1269  -21.6142 C   0  0  0  0  0  0  0  0  0  0  0  0
   -6.9404   -3.4386  -22.3903 C   0  0  0  0  0  0  0  0  0  0  0  0
   -1.4643    2.1947  -20.2216 S   0  0  0  0  0  0  0  0  0  0  0  0
   -0.6526    1.0154  -20.6692 O   0  0  0  0  0  0  0  0  0  0  0  0
   -2.2760    3.3741  -19.7741 O   0  0  0  0  0  0  0  0  0  0  0  0
    1.1017    2.4359  -20.5499 C   0  0  0  0  0  0  0  0  0  0  0  0
   -0.2155    3.0210  -20.1343 C   0  0  0  0  0  0  0  0  0  0  0  0
 25 26  1  0  0  0
 26 22  1  0  0  0
 22 23  2  0  0  0
 22 24  2  0  0  0
 22  1  1  0  0  0
  1  2  1  0  0  0
  2  3  1  0  0  0
  3  4  1  0  0  0
  3  5  1  0  0  0
  5  6  2  0  0  0
  5  7  1  0  0  0
  7 12  1  0  0  0
 12 13  2  0  0  0
 13 14  1  0  0  0
 14 15  2  0  0  0
 15 16  1  0  0  0
 16 17  2  0  0  0
 17 18  1  0  0  0
 18 19  2  0  0  0
 19 20  1  0  0  0
 20 21  2  0  0  0
  7  8  1  0  0  0
  8  9  2  0  0  0
  8 10  1  0  0  0
 10 11  1  0  0  0
  4  1  1  0  0  0
 21 12  1  0  0  0
 10  3  1  0  0  0
 21 16  1  0  0  0
M  END
> <minimizedAffinity>
-7.45245

> <CNNscore>
0.4108092487

> <CNNaffinity>
5.0980629921

> <CNN_VS>
2.0943315029

> <CNNaffinity_variance>
0.0430315994

$$$$



 26 29  0  0  0  0  0  0  0  0999 V2000
   -2.3446    1.5616  -20.3594 N   0  0  0  0  0  0  0  0  0  0  0  0
   -2.8614    0.8652  -21.5833 C   0  0  0  0  0  0  0  0  0  0  0  0
   -4.0431    0.3707  -20.8030 C   0  0  0  0  0  0  0  0  0  0  0  0
   -3.5264    1.0671  -19.5790 C   0  0  0  0  0  0  0  0  0  0  0  0
   -4.3686   -0.2397  -22.1340 C   0  0  0  0  0  0  0  0  0  0  0  0
   -3.5502   -0.1152  -23.3849 O   0  0  0  0  0  0  0  0  0  0  0  0
   -5.6562   -0.9965  -21.9944 N   0  0  0  0  0  0  0  0  0  0  0  0
   -6.1264   -0.8537  -20.5772 C   0  0  0  0  0  0  0  0  0  0  0  0
   -7.3745   -1.4511  -19.9980 O   0  0  0  0  0  0  0  0  0  0  0  0
   -5.1295   -0.0088  -19.8409 N   0  0  0  0  0  0  0  0  0  0  0  0
   -5.2056    0.3872  -18.3961 C   0  0  0  0  0  0  0  0  0  0  0  0
   -6.3514   -1.7616  -23.0813 C   0  0  0  0  0  0  0  0  0  0  0  0
   -6.6280   -3.2257  -22.9087 C   0  0  0  0  0  0  0  0  0  0  0  0
   -7.3232   -3.9908  -23.9955 N   0  0  0  0  0  0  0  0  0  0  0  0
   -7.7419   -3.2919  -25.2549 C   0  0  0  0  0  0  0  0  0  0  0  0
   -7.4653   -1.8277  -25.4275 C   0  0  0  0  0  0  0  0  0  0  0  0
   -7.8840   -1.1287  -26.6869 C   0  0  0  0  0  0  0  0  0  0  0  0
   -7.6074    0.3354  -26.8595 C   0  0  0  0  0  0  0  0  0  0  0  0
   -6.9122    1.1006  -25.7726 C   0  0  0  0  0  0  0  0  0  0  0  0
   -6.4935    0.4016  -24.5133 C   0  0  0  0  0  0  0  0  0  0  0  0
   -6.7701   -1.0625  -24.3407 C   0  0  0  0  0  0  0  0  0  0  0  0
   -1.1436    2.4037  -20.0456 S   0  0  0  0  0  0  0  0  0  0  0  0
   -0.2468    1.2471  -20.3745 O   0  0  0  0  0  0  0  0  0  0  0  0
   -2.0403    3.5602  -19.7166 O   0  0  0  0  0  0  0  0  0  0  0  0
    1.3311    3.0513  -20.5000 C   0  0  0  0  0  0  0  0  0  0  0  0
    0.0575    3.2456  -19.7318 C   0  0  0  0  0  0  0  0  0  0  0  0
 25 26  1  0  0  0
 26 22  1  0  0  0
 22 23  2  0  0  0
 22 24  2  0  0  0
 22  1  1  0  0  0
  1  2  1  0  0  0
  2  3  1  0  0  0
  3  4  1  0  0  0
  3  5  1  0  0  0
  5  6  2  0  0  0
  5  7  1  0  0  0
  7 12  1  0  0  0
 12 13  2  0  0  0
 13 14  1  0  0  0
 14 15  2  0  0  0
 15 16  1  0  0  0
 16 17  2  0  0  0
 17 18  1  0  0  0
 18 19  2  0  0  0
 19 20  1  0  0  0
 20 21  2  0  0  0
  7  8  1  0  0  0
  8  9  2  0  0  0
  8 10  1  0  0  0
 10 11  1  0  0  0
  4  1  1  0  0  0
 21 12  1  0  0  0
 10  3  1  0  0  0
 21 16  1  0  0  0
M  END
> <minimizedAffinity>
-5.97402

> <CNNscore>
0.3976588547

> <CNNaffinity>
4.8491401672

> <CNN_VS>
1.9283034801

> <CNNaffinity_variance>
0.0812242776

$$$$
