


 37 41  0  0  0  0  0  0  0  0999 V2000
   -9.0761   -0.2304  -23.5754 N   0  0  0  0  0  0  0  0  0  0  0  0
   -8.3369   -0.1384  -22.2735 C   0  0  0  0  0  0  0  0  0  0  0  0
   -8.9311    0.6227  -21.1257 O   0  0  0  0  0  0  0  0  0  0  0  0
  -11.9003    4.0896  -24.1768 N   0  0  0  0  0  0  0  0  0  0  0  0
  -10.6453    4.9111  -24.1693 C   0  0  0  0  0  0  0  0  0  0  0  0
   -9.3118    4.2419  -24.0152 C   0  0  0  0  0  0  0  0  0  0  0  0
   -9.2332    2.7512  -23.8686 C   0  0  0  0  0  0  0  0  0  0  0  0
  -10.4882    1.9297  -23.8761 C   0  0  0  0  0  0  0  0  0  0  0  0
  -10.4097    0.4389  -23.7296 C   0  0  0  0  0  0  0  0  0  0  0  0
  -11.6647   -0.3826  -23.7371 C   0  0  0  0  0  0  0  0  0  0  0  0
  -12.9982    0.2866  -23.8912 C   0  0  0  0  0  0  0  0  0  0  0  0
  -13.0768    1.7773  -24.0378 C   0  0  0  0  0  0  0  0  0  0  0  0
  -11.8218    2.5989  -24.0302 C   0  0  0  0  0  0  0  0  0  0  0  0
  -11.0251    3.6504  -24.0757 H   0  0  0  0  0  0  0  0  0  0  0  0
  -13.2339    4.7589  -24.3309 C   0  0  0  0  0  0  0  0  0  0  0  0
  -14.3447    4.4472  -23.3723 O   0  0  0  0  0  0  0  0  0  0  0  0
  -13.1499    5.3504  -26.8594 C   0  0  0  0  0  0  0  0  0  0  0  0
  -13.4566    5.7398  -25.4436 C   0  0  0  0  0  0  0  0  0  0  0  0
   -8.4819   -0.9915  -24.7232 C   0  0  0  0  0  0  0  0  0  0  0  0
   -8.4616   -2.4912  -24.6984 C   0  0  0  0  0  0  0  0  0  0  0  0
   -7.3349   -3.2149  -24.0225 C   0  0  0  0  0  0  0  0  0  0  0  0
   -7.3147   -4.7146  -23.9977 C   0  0  0  0  0  0  0  0  0  0  0  0
   -8.4212   -5.4905  -24.6488 C   0  0  0  0  0  0  0  0  0  0  0  0
   -9.5478   -4.7667  -25.3247 C   0  0  0  0  0  0  0  0  0  0  0  0
  -10.6542   -5.5425  -25.9758 Cl  0  0  0  0  0  0  0  0  0  0  0  0
   -9.5680   -3.2670  -25.3495 C   0  0  0  0  0  0  0  0  0  0  0  0
   -7.0033   -0.8077  -22.1194 C   0  0  0  0  0  0  0  0  0  0  0  0
   -6.2153   -0.6275  -20.8558 C   0  0  0  0  0  0  0  0  0  0  0  0
   -6.5173   -1.4758  -19.6561 C   0  0  0  0  0  0  0  0  0  0  0  0
   -5.7293   -1.2956  -18.3926 N   0  0  0  0  0  0  0  0  0  0  0  0
   -4.6392   -0.2671  -18.3287 C   0  0  0  0  0  0  0  0  0  0  0  0
   -4.3372    0.5811  -19.5284 C   0  0  0  0  0  0  0  0  0  0  0  0
   -3.2471    1.6096  -19.4646 C   0  0  0  0  0  0  0  0  0  0  0  0
   -2.9451    2.4578  -20.6643 C   0  0  0  0  0  0  0  0  0  0  0  0
   -3.7331    2.2777  -21.9278 C   0  0  0  0  0  0  0  0  0  0  0  0
   -4.8232    1.2492  -21.9917 C   0  0  0  0  0  0  0  0  0  0  0  0
   -5.1253    0.4009  -20.7920 C   0  0  0  0  0  0  0  0  0  0  0  0
 17 18  1  0  0  0
 18 15  1  0  0  0
 15 16  2  0  0  0
  4 15  1  0  0  0
  4  5  1  0  0  0
  5  6  1  0  0  0
  6  7  1  0  0  0
  7  8  1  0  0  0
  8  9  2  0  0  0
  9  1  1  0  0  0
  1 19  1  0  0  0
 19 20  1  0  0  0
 20 21  2  0  0  0
 21 22  1  0  0  0
 22 23  2  0  0  0
 23 24  1  0  0  0
 24 25  1  0  0  0
 24 26  2  0  0  0
  1  2  1  0  0  0
  2  3  2  0  0  0
  2 27  1  0  0  0
 27 28  1  0  0  0
 28 29  2  0  0  0
 29 30  1  0  0  0
 30 31  2  0  0  0
 31 32  1  0  0  0
 32 33  2  0  0  0
 33 34  1  0  0  0
 34 35  2  0  0  0
 35 36  1  0  0  0
 36 37  2  0  0  0
  9 10  1  0  0  0
 10 11  2  0  0  0
 11 12  1  0  0  0
 12 13  2  0  0  0
 13  4  1  0  0  0
 13  8  1  0  0  0
 26 20  1  0  0  0
 37 28  1  0  0  0
 37 32  1  0  0  0
  4 14  1  0  0  0
M  CHG 1   4   1
M  END
> <minimizedAffinity>
-7.71312

> <CNNscore>
0.7055805922

> <CNNaffinity>
6.7915773392

> <CNN_VS>
4.7920050621

> <CNNaffinity_variance>
0.0640995353

$$$$



 37 41  0  0  0  0  0  0  0  0999 V2000
   -8.6542   -1.1683  -23.5137 N   0  0  0  0  0  0  0  0  0  0  0  0
   -7.7889   -1.0942  -22.2906 C   0  0  0  0  0  0  0  0  0  0  0  0
   -8.2843   -0.3888  -21.0630 O   0  0  0  0  0  0  0  0  0  0  0  0
  -11.6505    3.0676  -23.7955 N   0  0  0  0  0  0  0  0  0  0  0  0
  -10.4274    3.9228  -23.9456 C   0  0  0  0  0  0  0  0  0  0  0  0
   -9.0667    3.2915  -23.9501 C   0  0  0  0  0  0  0  0  0  0  0  0
   -8.9292    1.8049  -23.8047 C   0  0  0  0  0  0  0  0  0  0  0  0
  -10.1523    0.9497  -23.6546 C   0  0  0  0  0  0  0  0  0  0  0  0
  -10.0148   -0.5369  -23.5091 C   0  0  0  0  0  0  0  0  0  0  0  0
  -11.2379   -1.3921  -23.3591 C   0  0  0  0  0  0  0  0  0  0  0  0
  -12.5986   -0.7608  -23.3545 C   0  0  0  0  0  0  0  0  0  0  0  0
  -12.7361    0.7257  -23.5000 C   0  0  0  0  0  0  0  0  0  0  0  0
  -11.5130    1.5810  -23.6501 C   0  0  0  0  0  0  0  0  0  0  0  0
  -10.7575    2.6532  -23.7985 H   0  0  0  0  0  0  0  0  0  0  0  0
  -13.0112    3.6989  -23.7910 C   0  0  0  0  0  0  0  0  0  0  0  0
  -13.8208    3.7269  -22.5286 O   0  0  0  0  0  0  0  0  0  0  0  0
  -12.6351    4.6985  -26.1594 C   0  0  0  0  0  0  0  0  0  0  0  0
  -13.5623    4.3022  -25.0488 C   0  0  0  0  0  0  0  0  0  0  0  0
   -8.1588   -1.8737  -24.7412 C   0  0  0  0  0  0  0  0  0  0  0  0
   -8.2834   -3.3644  -24.8513 C   0  0  0  0  0  0  0  0  0  0  0  0
   -7.3170   -4.2534  -24.1261 C   0  0  0  0  0  0  0  0  0  0  0  0
   -7.4416   -5.7442  -24.2362 C   0  0  0  0  0  0  0  0  0  0  0  0
   -8.5326   -6.3460  -25.0715 C   0  0  0  0  0  0  0  0  0  0  0  0
   -9.4989   -5.4570  -25.7967 C   0  0  0  0  0  0  0  0  0  0  0  0
  -10.5899   -6.0588  -26.6320 Cl  0  0  0  0  0  0  0  0  0  0  0  0
   -9.3743   -3.9662  -25.6866 C   0  0  0  0  0  0  0  0  0  0  0  0
   -6.4282   -1.7255  -22.2952 C   0  0  0  0  0  0  0  0  0  0  0  0
   -5.2308   -0.9239  -22.7117 C   0  0  0  0  0  0  0  0  0  0  0  0
   -4.7654   -0.9565  -24.1373 C   0  0  0  0  0  0  0  0  0  0  0  0
   -3.5681   -0.1548  -24.5539 N   0  0  0  0  0  0  0  0  0  0  0  0
   -2.8360    0.6795  -23.5449 C   0  0  0  0  0  0  0  0  0  0  0  0
   -3.3014    0.7121  -22.1193 C   0  0  0  0  0  0  0  0  0  0  0  0
   -2.5694    1.5464  -21.1103 C   0  0  0  0  0  0  0  0  0  0  0  0
   -3.0348    1.5790  -19.6847 C   0  0  0  0  0  0  0  0  0  0  0  0
   -4.2322    0.7774  -19.2681 C   0  0  0  0  0  0  0  0  0  0  0  0
   -4.9643   -0.0570  -20.2771 C   0  0  0  0  0  0  0  0  0  0  0  0
   -4.4989   -0.0896  -21.7027 C   0  0  0  0  0  0  0  0  0  0  0  0
 17 18  1  0  0  0
 18 15  1  0  0  0
 15 16  2  0  0  0
  4 15  1  0  0  0
  4  5  1  0  0  0
  5  6  1  0  0  0
  6  7  1  0  0  0
  7  8  1  0  0  0
  8  9  2  0  0  0
  9  1  1  0  0  0
  1 19  1  0  0  0
 19 20  1  0  0  0
 20 21  2  0  0  0
 21 22  1  0  0  0
 22 23  2  0  0  0
 23 24  1  0  0  0
 24 25  1  0  0  0
 24 26  2  0  0  0
  1  2  1  0  0  0
  2  3  2  0  0  0
  2 27  1  0  0  0
 27 28  1  0  0  0
 28 29  2  0  0  0
 29 30  1  0  0  0
 30 31  2  0  0  0
 31 32  1  0  0  0
 32 33  2  0  0  0
 33 34  1  0  0  0
 34 35  2  0  0  0
 35 36  1  0  0  0
 36 37  2  0  0  0
  9 10  1  0  0  0
 10 11  2  0  0  0
 11 12  1  0  0  0
 12 13  2  0  0  0
 13  4  1  0  0  0
 13  8  1  0  0  0
 26 20  1  0  0  0
 37 28  1  0  0  0
 37 32  1  0  0  0
  4 14  1  0  0  0
M  CHG 1   4   1
M  END
> <minimizedAffinity>
-8.25867

> <CNNscore>
0.5194992423

> <CNNaffinity>
6.6768126488

> <CNN_VS>
3.4685990810

> <CNNaffinity_variance>
0.0867512450

$$$$



 37 41  0  0  0  0  0  0  0  0999 V2000
   -8.1743   -0.8755  -23.1669 N   0  0  0  0  0  0  0  0  0  0  0  0
   -7.4288   -0.6313  -21.8883 C   0  0  0  0  0  0  0  0  0  0  0  0
   -8.0898    0.1102  -20.7645 O   0  0  0  0  0  0  0  0  0  0  0  0
  -11.5001    3.0265  -24.0115 N   0  0  0  0  0  0  0  0  0  0  0  0
  -10.3498    3.9825  -24.1244 C   0  0  0  0  0  0  0  0  0  0  0  0
   -8.9432    3.4850  -23.9698 C   0  0  0  0  0  0  0  0  0  0  0  0
   -8.6869    2.0316  -23.7021 C   0  0  0  0  0  0  0  0  0  0  0  0
   -9.8372    1.0756  -23.5892 C   0  0  0  0  0  0  0  0  0  0  0  0
   -9.5809   -0.3780  -23.3215 C   0  0  0  0  0  0  0  0  0  0  0  0
  -10.7312   -1.3340  -23.2086 C   0  0  0  0  0  0  0  0  0  0  0  0
  -12.1378   -0.8365  -23.3632 C   0  0  0  0  0  0  0  0  0  0  0  0
  -12.3942    0.6170  -23.6309 C   0  0  0  0  0  0  0  0  0  0  0  0
  -11.2438    1.5730  -23.7438 C   0  0  0  0  0  0  0  0  0  0  0  0
  -10.5769    2.7000  -23.9100 H   0  0  0  0  0  0  0  0  0  0  0  0
  -12.9068    3.5240  -24.1661 C   0  0  0  0  0  0  0  0  0  0  0  0
  -13.9568    3.1255  -23.1719 O   0  0  0  0  0  0  0  0  0  0  0  0
  -13.2770    5.9083  -25.1293 C   0  0  0  0  0  0  0  0  0  0  0  0
  -13.2633    4.4199  -25.3151 C   0  0  0  0  0  0  0  0  0  0  0  0
   -7.5132   -1.6170  -24.2907 C   0  0  0  0  0  0  0  0  0  0  0  0
   -7.7915   -3.0772  -24.4919 C   0  0  0  0  0  0  0  0  0  0  0  0
   -8.4979   -3.5422  -25.7308 C   0  0  0  0  0  0  0  0  0  0  0  0
   -8.7762   -5.0024  -25.9321 C   0  0  0  0  0  0  0  0  0  0  0  0
   -8.3481   -5.9975  -24.8945 C   0  0  0  0  0  0  0  0  0  0  0  0
   -7.6418   -5.5324  -23.6557 C   0  0  0  0  0  0  0  0  0  0  0  0
   -7.2137   -6.5275  -22.6180 Cl  0  0  0  0  0  0  0  0  0  0  0  0
   -7.3634   -4.0723  -23.4544 C   0  0  0  0  0  0  0  0  0  0  0  0
   -6.0221   -1.1288  -21.7336 C   0  0  0  0  0  0  0  0  0  0  0  0
   -4.9666   -0.2284  -21.1634 C   0  0  0  0  0  0  0  0  0  0  0  0
   -5.0169    0.1635  -19.7164 C   0  0  0  0  0  0  0  0  0  0  0  0
   -3.9614    1.0639  -19.1461 N   0  0  0  0  0  0  0  0  0  0  0  0
   -2.8555    1.5723  -20.0229 C   0  0  0  0  0  0  0  0  0  0  0  0
   -2.8053    1.1803  -21.4699 C   0  0  0  0  0  0  0  0  0  0  0  0
   -1.6995    1.6887  -22.3467 C   0  0  0  0  0  0  0  0  0  0  0  0
   -1.6492    1.2968  -23.7937 C   0  0  0  0  0  0  0  0  0  0  0  0
   -2.7047    0.3964  -24.3639 C   0  0  0  0  0  0  0  0  0  0  0  0
   -3.8106   -0.1120  -23.4871 C   0  0  0  0  0  0  0  0  0  0  0  0
   -3.8609    0.2799  -22.0401 C   0  0  0  0  0  0  0  0  0  0  0  0
 17 18  1  0  0  0
 18 15  1  0  0  0
 15 16  2  0  0  0
  4 15  1  0  0  0
  4  5  1  0  0  0
  5  6  1  0  0  0
  6  7  1  0  0  0
  7  8  1  0  0  0
  8  9  2  0  0  0
  9  1  1  0  0  0
  1 19  1  0  0  0
 19 20  1  0  0  0
 20 21  2  0  0  0
 21 22  1  0  0  0
 22 23  2  0  0  0
 23 24  1  0  0  0
 24 25  1  0  0  0
 24 26  2  0  0  0
  1  2  1  0  0  0
  2  3  2  0  0  0
  2 27  1  0  0  0
 27 28  1  0  0  0
 28 29  2  0  0  0
 29 30  1  0  0  0
 30 31  2  0  0  0
 31 32  1  0  0  0
 32 33  2  0  0  0
 33 34  1  0  0  0
 34 35  2  0  0  0
 35 36  1  0  0  0
 36 37  2  0  0  0
  9 10  1  0  0  0
 10 11  2  0  0  0
 11 12  1  0  0  0
 12 13  2  0  0  0
 13  4  1  0  0  0
 13  8  1  0  0  0
 26 20  1  0  0  0
 37 28  1  0  0  0
 37 32  1  0  0  0
  4 14  1  0  0  0
M  CHG 1   4   1
M  END
> <minimizedAffinity>
-8.06163

> <CNNscore>
0.4292653203

> <CNNaffinity>
6.5212426186

> <CNN_VS>
2.7993433475

> <CNNaffinity_variance>
0.1092105284

$$$$



 37 41  0  0  0  0  0  0  0  0999 V2000
   -9.1213   -0.1405  -23.7959 N   0  0  0  0  0  0  0  0  0  0  0  0
   -9.0995   -1.5109  -24.4057 C   0  0  0  0  0  0  0  0  0  0  0  0
  -10.3716   -2.1310  -24.9026 O   0  0  0  0  0  0  0  0  0  0  0  0
  -11.7274    4.3546  -23.7463 N   0  0  0  0  0  0  0  0  0  0  0  0
  -10.4424    5.1018  -23.9470 C   0  0  0  0  0  0  0  0  0  0  0  0
   -9.1484    4.3516  -24.0598 C   0  0  0  0  0  0  0  0  0  0  0  0
   -9.1393    2.8543  -23.9718 C   0  0  0  0  0  0  0  0  0  0  0  0
  -10.4243    2.1071  -23.7711 C   0  0  0  0  0  0  0  0  0  0  0  0
  -10.4154    0.6096  -23.6832 C   0  0  0  0  0  0  0  0  0  0  0  0
  -11.7004   -0.1376  -23.4825 C   0  0  0  0  0  0  0  0  0  0  0  0
  -12.9944    0.6125  -23.3697 C   0  0  0  0  0  0  0  0  0  0  0  0
  -13.0035    2.1099  -23.4576 C   0  0  0  0  0  0  0  0  0  0  0  0
  -11.7184    2.8572  -23.6583 C   0  0  0  0  0  0  0  0  0  0  0  0
  -10.8781    3.8622  -23.8203 H   0  0  0  0  0  0  0  0  0  0  0  0
  -13.0215    5.1047  -23.6335 C   0  0  0  0  0  0  0  0  0  0  0  0
  -13.8448    4.9964  -22.3844 O   0  0  0  0  0  0  0  0  0  0  0  0
  -13.4016    5.4577  -26.1793 C   0  0  0  0  0  0  0  0  0  0  0  0
  -13.4923    5.9631  -24.7699 C   0  0  0  0  0  0  0  0  0  0  0  0
   -7.8492    0.4796  -23.2990 C   0  0  0  0  0  0  0  0  0  0  0  0
   -7.2971    0.0884  -21.9603 C   0  0  0  0  0  0  0  0  0  0  0  0
   -8.0401   -0.8898  -21.0994 C   0  0  0  0  0  0  0  0  0  0  0  0
   -7.4880   -1.2810  -19.7606 C   0  0  0  0  0  0  0  0  0  0  0  0
   -6.1929   -0.6940  -19.2829 C   0  0  0  0  0  0  0  0  0  0  0  0
   -5.4500    0.2842  -20.1438 C   0  0  0  0  0  0  0  0  0  0  0  0
   -4.1548    0.8712  -19.6660 Cl  0  0  0  0  0  0  0  0  0  0  0  0
   -6.0020    0.6754  -21.4825 C   0  0  0  0  0  0  0  0  0  0  0  0
   -7.8054   -2.2610  -24.5185 C   0  0  0  0  0  0  0  0  0  0  0  0
   -7.7671   -3.7356  -24.2464 C   0  0  0  0  0  0  0  0  0  0  0  0
   -7.3019   -4.2404  -22.9127 C   0  0  0  0  0  0  0  0  0  0  0  0
   -7.2637   -5.7150  -22.6407 N   0  0  0  0  0  0  0  0  0  0  0  0
   -7.6906   -6.6849  -23.7024 C   0  0  0  0  0  0  0  0  0  0  0  0
   -8.1558   -6.1801  -25.0361 C   0  0  0  0  0  0  0  0  0  0  0  0
   -8.5828   -7.1499  -26.0977 C   0  0  0  0  0  0  0  0  0  0  0  0
   -9.0480   -6.6451  -27.4314 C   0  0  0  0  0  0  0  0  0  0  0  0
   -9.0862   -5.1705  -27.7035 C   0  0  0  0  0  0  0  0  0  0  0  0
   -8.6593   -4.2006  -26.6418 C   0  0  0  0  0  0  0  0  0  0  0  0
   -8.1941   -4.7054  -25.3081 C   0  0  0  0  0  0  0  0  0  0  0  0
 17 18  1  0  0  0
 18 15  1  0  0  0
 15 16  2  0  0  0
  4 15  1  0  0  0
  4  5  1  0  0  0
  5  6  1  0  0  0
  6  7  1  0  0  0
  7  8  1  0  0  0
  8  9  2  0  0  0
  9  1  1  0  0  0
  1 19  1  0  0  0
 19 20  1  0  0  0
 20 21  2  0  0  0
 21 22  1  0  0  0
 22 23  2  0  0  0
 23 24  1  0  0  0
 24 25  1  0  0  0
 24 26  2  0  0  0
  1  2  1  0  0  0
  2  3  2  0  0  0
  2 27  1  0  0  0
 27 28  1  0  0  0
 28 29  2  0  0  0
 29 30  1  0  0  0
 30 31  2  0  0  0
 31 32  1  0  0  0
 32 33  2  0  0  0
 33 34  1  0  0  0
 34 35  2  0  0  0
 35 36  1  0  0  0
 36 37  2  0  0  0
  9 10  1  0  0  0
 10 11  2  0  0  0
 11 12  1  0  0  0
 12 13  2  0  0  0
 13  4  1  0  0  0
 13  8  1  0  0  0
 26 20  1  0  0  0
 37 28  1  0  0  0
 37 32  1  0  0  0
  4 14  1  0  0  0
M  CHG 1   4   1
M  END
> <minimizedAffinity>
-8.52464

> <CNNscore>
0.3455107510

> <CNNaffinity>
6.5322966576

> <CNN_VS>
2.2569787502

> <CNNaffinity_variance>
0.1723047197

$$$$



 37 41  0  0  0  0  0  0  0  0999 V2000
   -8.8923   -1.1232  -23.4407 N   0  0  0  0  0  0  0  0  0  0  0  0
   -7.9341   -0.8625  -22.3164 C   0  0  0  0  0  0  0  0  0  0  0  0
   -8.3004    0.1013  -21.2271 O   0  0  0  0  0  0  0  0  0  0  0  0
  -11.6517    3.2556  -23.9013 N   0  0  0  0  0  0  0  0  0  0  0  0
  -10.3825    4.0385  -24.0619 C   0  0  0  0  0  0  0  0  0  0  0  0
   -9.0580    3.3354  -24.0271 C   0  0  0  0  0  0  0  0  0  0  0  0
   -9.0027    1.8492  -23.8316 C   0  0  0  0  0  0  0  0  0  0  0  0
  -10.2720    1.0662  -23.6710 C   0  0  0  0  0  0  0  0  0  0  0  0
  -10.2168   -0.4200  -23.4756 C   0  0  0  0  0  0  0  0  0  0  0  0
  -11.4861   -1.2030  -23.3150 C   0  0  0  0  0  0  0  0  0  0  0  0
  -12.8106   -0.4998  -23.3498 C   0  0  0  0  0  0  0  0  0  0  0  0
  -12.8658    0.9863  -23.5453 C   0  0  0  0  0  0  0  0  0  0  0  0
  -11.5965    1.7694  -23.7059 C   0  0  0  0  0  0  0  0  0  0  0  0
  -10.7824    2.7940  -23.8785 H   0  0  0  0  0  0  0  0  0  0  0  0
  -12.9763    3.9587  -23.9362 C   0  0  0  0  0  0  0  0  0  0  0  0
  -13.8228    4.0253  -22.6997 O   0  0  0  0  0  0  0  0  0  0  0  0
  -13.3679    6.0828  -25.3800 C   0  0  0  0  0  0  0  0  0  0  0  0
  -13.4542    4.5953  -25.2075 C   0  0  0  0  0  0  0  0  0  0  0  0
   -8.5259   -2.0870  -24.5301 C   0  0  0  0  0  0  0  0  0  0  0  0
   -7.7424   -1.6134  -25.7183 C   0  0  0  0  0  0  0  0  0  0  0  0
   -7.7346   -0.1575  -26.0797 C   0  0  0  0  0  0  0  0  0  0  0  0
   -6.9511    0.3160  -27.2679 C   0  0  0  0  0  0  0  0  0  0  0  0
   -6.1754   -0.6662  -28.0948 C   0  0  0  0  0  0  0  0  0  0  0  0
   -6.1833   -2.1220  -27.7334 C   0  0  0  0  0  0  0  0  0  0  0  0
   -5.4077   -3.1043  -28.5602 Cl  0  0  0  0  0  0  0  0  0  0  0  0
   -6.9668   -2.5956  -26.5452 C   0  0  0  0  0  0  0  0  0  0  0  0
   -6.6096   -1.5657  -22.2816 C   0  0  0  0  0  0  0  0  0  0  0  0
   -5.3593   -0.8292  -22.6614 C   0  0  0  0  0  0  0  0  0  0  0  0
   -4.8574   -0.8821  -24.0740 C   0  0  0  0  0  0  0  0  0  0  0  0
   -3.6071   -0.1457  -24.4538 N   0  0  0  0  0  0  0  0  0  0  0  0
   -2.8585    0.6437  -23.4210 C   0  0  0  0  0  0  0  0  0  0  0  0
   -3.3603    0.6966  -22.0084 C   0  0  0  0  0  0  0  0  0  0  0  0
   -2.6118    1.4859  -20.9757 C   0  0  0  0  0  0  0  0  0  0  0  0
   -3.1136    1.5388  -19.5631 C   0  0  0  0  0  0  0  0  0  0  0  0
   -4.3640    0.8023  -19.1833 C   0  0  0  0  0  0  0  0  0  0  0  0
   -5.1125    0.0130  -20.2161 C   0  0  0  0  0  0  0  0  0  0  0  0
   -4.6107   -0.0399  -21.6286 C   0  0  0  0  0  0  0  0  0  0  0  0
 17 18  1  0  0  0
 18 15  1  0  0  0
 15 16  2  0  0  0
  4 15  1  0  0  0
  4  5  1  0  0  0
  5  6  1  0  0  0
  6  7  1  0  0  0
  7  8  1  0  0  0
  8  9  2  0  0  0
  9  1  1  0  0  0
  1 19  1  0  0  0
 19 20  1  0  0  0
 20 21  2  0  0  0
 21 22  1  0  0  0
 22 23  2  0  0  0
 23 24  1  0  0  0
 24 25  1  0  0  0
 24 26  2  0  0  0
  1  2  1  0  0  0
  2  3  2  0  0  0
  2 27  1  0  0  0
 27 28  1  0  0  0
 28 29  2  0  0  0
 29 30  1  0  0  0
 30 31  2  0  0  0
 31 32  1  0  0  0
 32 33  2  0  0  0
 33 34  1  0  0  0
 34 35  2  0  0  0
 35 36  1  0  0  0
 36 37  2  0  0  0
  9 10  1  0  0  0
 10 11  2  0  0  0
 11 12  1  0  0  0
 12 13  2  0  0  0
 13  4  1  0  0  0
 13  8  1  0  0  0
 26 20  1  0  0  0
 37 28  1  0  0  0
 37 32  1  0  0  0
  4 14  1  0  0  0
M  CHG 1   4   1
M  END
> <minimizedAffinity>
-7.41889

> <CNNscore>
0.3219458461

> <CNNaffinity>
6.1793084145

> <CNN_VS>
1.9894026518

> <CNNaffinity_variance>
0.1402974129

$$$$



 37 41  0  0  0  0  0  0  0  0999 V2000
   -6.8414   -1.0924  -22.5462 N   0  0  0  0  0  0  0  0  0  0  0  0
   -8.2826   -0.6774  -22.5138 C   0  0  0  0  0  0  0  0  0  0  0  0
   -8.7553    0.3120  -21.4903 O   0  0  0  0  0  0  0  0  0  0  0  0
   -2.8008    1.9931  -21.4721 N   0  0  0  0  0  0  0  0  0  0  0  0
   -2.7173    2.3867  -22.9171 C   0  0  0  0  0  0  0  0  0  0  0  0
   -3.6856    1.8122  -23.9081 C   0  0  0  0  0  0  0  0  0  0  0  0
   -4.7375    0.8440  -23.4542 C   0  0  0  0  0  0  0  0  0  0  0  0
   -4.8211    0.4504  -22.0092 C   0  0  0  0  0  0  0  0  0  0  0  0
   -5.8730   -0.5178  -21.5552 C   0  0  0  0  0  0  0  0  0  0  0  0
   -5.9566   -0.9114  -20.1102 C   0  0  0  0  0  0  0  0  0  0  0  0
   -4.9882   -0.3369  -19.1191 C   0  0  0  0  0  0  0  0  0  0  0  0
   -3.9363    0.6313  -19.5731 C   0  0  0  0  0  0  0  0  0  0  0  0
   -3.8527    1.0249  -21.0181 C   0  0  0  0  0  0  0  0  0  0  0  0
   -3.4364    1.6160  -22.1225 H   0  0  0  0  0  0  0  0  0  0  0  0
   -1.8325    2.5676  -20.4810 C   0  0  0  0  0  0  0  0  0  0  0  0
   -2.1256    3.8827  -19.8218 O   0  0  0  0  0  0  0  0  0  0  0  0
    0.1986    1.1330  -21.2336 C   0  0  0  0  0  0  0  0  0  0  0  0
   -0.5709    1.8271  -20.1492 C   0  0  0  0  0  0  0  0  0  0  0  0
   -6.3687   -2.0818  -23.5697 C   0  0  0  0  0  0  0  0  0  0  0  0
   -6.6666   -3.5415  -23.3953 C   0  0  0  0  0  0  0  0  0  0  0  0
   -7.6183   -4.2295  -24.3286 C   0  0  0  0  0  0  0  0  0  0  0  0
   -7.9162   -5.6893  -24.1542 C   0  0  0  0  0  0  0  0  0  0  0  0
   -7.2623   -6.4610  -23.0465 C   0  0  0  0  0  0  0  0  0  0  0  0
   -6.3107   -5.7730  -22.1132 C   0  0  0  0  0  0  0  0  0  0  0  0
   -5.6569   -6.5448  -21.0055 Cl  0  0  0  0  0  0  0  0  0  0  0  0
   -6.0128   -4.3133  -22.2876 C   0  0  0  0  0  0  0  0  0  0  0  0
   -9.2509   -1.2520  -23.5048 C   0  0  0  0  0  0  0  0  0  0  0  0
  -10.7260   -1.0655  -23.3068 C   0  0  0  0  0  0  0  0  0  0  0  0
  -11.5747   -2.2193  -22.8613 C   0  0  0  0  0  0  0  0  0  0  0  0
  -13.0498   -2.0328  -22.6633 N   0  0  0  0  0  0  0  0  0  0  0  0
  -13.6763   -0.6925  -22.9107 C   0  0  0  0  0  0  0  0  0  0  0  0
  -12.8276    0.4613  -23.3561 C   0  0  0  0  0  0  0  0  0  0  0  0
  -13.4539    1.8016  -23.6035 C   0  0  0  0  0  0  0  0  0  0  0  0
  -12.6052    2.9554  -24.0489 C   0  0  0  0  0  0  0  0  0  0  0  0
  -11.1301    2.7689  -24.2469 C   0  0  0  0  0  0  0  0  0  0  0  0
  -10.5037    1.4286  -23.9995 C   0  0  0  0  0  0  0  0  0  0  0  0
  -11.3524    0.2748  -23.5541 C   0  0  0  0  0  0  0  0  0  0  0  0
 17 18  1  0  0  0
 18 15  1  0  0  0
 15 16  2  0  0  0
  4 15  1  0  0  0
  4  5  1  0  0  0
  5  6  1  0  0  0
  6  7  1  0  0  0
  7  8  1  0  0  0
  8  9  2  0  0  0
  9  1  1  0  0  0
  1 19  1  0  0  0
 19 20  1  0  0  0
 20 21  2  0  0  0
 21 22  1  0  0  0
 22 23  2  0  0  0
 23 24  1  0  0  0
 24 25  1  0  0  0
 24 26  2  0  0  0
  1  2  1  0  0  0
  2  3  2  0  0  0
  2 27  1  0  0  0
 27 28  1  0  0  0
 28 29  2  0  0  0
 29 30  1  0  0  0
 30 31  2  0  0  0
 31 32  1  0  0  0
 32 33  2  0  0  0
 33 34  1  0  0  0
 34 35  2  0  0  0
 35 36  1  0  0  0
 36 37  2  0  0  0
  9 10  1  0  0  0
 10 11  2  0  0  0
 11 12  1  0  0  0
 12 13  2  0  0  0
 13  4  1  0  0  0
 13  8  1  0  0  0
 26 20  1  0  0  0
 37 28  1  0  0  0
 37 32  1  0  0  0
  4 14  1  0  0  0
M  CHG 1   4   1
M  END
> <minimizedAffinity>
-8.21715

> <CNNscore>
0.2681315243

> <CNNaffinity>
6.2627935410

> <CNN_VS>
1.6792523861

> <CNNaffinity_variance>
0.2633604407

$$$$



 37 41  0  0  0  0  0  0  0  0999 V2000
   -9.0292   -1.2216  -23.1110 N   0  0  0  0  0  0  0  0  0  0  0  0
   -8.3121   -1.7437  -24.3207 C   0  0  0  0  0  0  0  0  0  0  0  0
   -8.8505   -1.4609  -25.6919 O   0  0  0  0  0  0  0  0  0  0  0  0
  -11.3745    3.3378  -23.9542 N   0  0  0  0  0  0  0  0  0  0  0  0
  -10.0362    4.0080  -24.0526 C   0  0  0  0  0  0  0  0  0  0  0  0
   -8.7807    3.2032  -23.8910 C   0  0  0  0  0  0  0  0  0  0  0  0
   -8.8636    1.7283  -23.6310 C   0  0  0  0  0  0  0  0  0  0  0  0
  -10.2019    1.0581  -23.5326 C   0  0  0  0  0  0  0  0  0  0  0  0
  -10.2847   -0.4169  -23.2726 C   0  0  0  0  0  0  0  0  0  0  0  0
  -11.6230   -1.0871  -23.1741 C   0  0  0  0  0  0  0  0  0  0  0  0
  -12.8785   -0.2823  -23.3357 C   0  0  0  0  0  0  0  0  0  0  0  0
  -12.7957    1.1926  -23.5957 C   0  0  0  0  0  0  0  0  0  0  0  0
  -11.4574    1.8629  -23.6942 C   0  0  0  0  0  0  0  0  0  0  0  0
  -10.5505    2.8096  -23.8481 H   0  0  0  0  0  0  0  0  0  0  0  0
  -12.6300    4.1426  -24.1157 C   0  0  0  0  0  0  0  0  0  0  0  0
  -13.8862    3.7220  -23.4122 O   0  0  0  0  0  0  0  0  0  0  0  0
  -13.2530    5.3237  -26.3444 C   0  0  0  0  0  0  0  0  0  0  0  0
  -12.6293    5.3679  -24.9809 C   0  0  0  0  0  0  0  0  0  0  0  0
   -8.4909   -1.5044  -21.7398 C   0  0  0  0  0  0  0  0  0  0  0  0
   -7.3330   -0.7113  -21.2104 C   0  0  0  0  0  0  0  0  0  0  0  0
   -6.6345    0.2781  -22.0955 C   0  0  0  0  0  0  0  0  0  0  0  0
   -5.4766    1.0712  -21.5661 C   0  0  0  0  0  0  0  0  0  0  0  0
   -5.0172    0.8749  -20.1517 C   0  0  0  0  0  0  0  0  0  0  0  0
   -5.7157   -0.1144  -19.2667 C   0  0  0  0  0  0  0  0  0  0  0  0
   -5.2563   -0.3107  -17.8523 Cl  0  0  0  0  0  0  0  0  0  0  0  0
   -6.8736   -0.9075  -19.7961 C   0  0  0  0  0  0  0  0  0  0  0  0
   -7.0566   -2.5484  -24.1591 C   0  0  0  0  0  0  0  0  0  0  0  0
   -7.1395   -4.0105  -23.8347 C   0  0  0  0  0  0  0  0  0  0  0  0
   -6.4852   -4.5418  -22.5939 C   0  0  0  0  0  0  0  0  0  0  0  0
   -6.5681   -6.0039  -22.2695 N   0  0  0  0  0  0  0  0  0  0  0  0
   -7.3053   -6.9349  -23.1860 C   0  0  0  0  0  0  0  0  0  0  0  0
   -7.9596   -6.4037  -24.4268 C   0  0  0  0  0  0  0  0  0  0  0  0
   -8.6968   -7.3346  -25.3433 C   0  0  0  0  0  0  0  0  0  0  0  0
   -9.3511   -6.8033  -26.5842 C   0  0  0  0  0  0  0  0  0  0  0  0
   -9.2682   -5.3412  -26.9085 C   0  0  0  0  0  0  0  0  0  0  0  0
   -8.5310   -4.4102  -25.9921 C   0  0  0  0  0  0  0  0  0  0  0  0
   -7.8767   -4.9414  -24.7512 C   0  0  0  0  0  0  0  0  0  0  0  0
 17 18  1  0  0  0
 18 15  1  0  0  0
 15 16  2  0  0  0
  4 15  1  0  0  0
  4  5  1  0  0  0
  5  6  1  0  0  0
  6  7  1  0  0  0
  7  8  1  0  0  0
  8  9  2  0  0  0
  9  1  1  0  0  0
  1 19  1  0  0  0
 19 20  1  0  0  0
 20 21  2  0  0  0
 21 22  1  0  0  0
 22 23  2  0  0  0
 23 24  1  0  0  0
 24 25  1  0  0  0
 24 26  2  0  0  0
  1  2  1  0  0  0
  2  3  2  0  0  0
  2 27  1  0  0  0
 27 28  1  0  0  0
 28 29  2  0  0  0
 29 30  1  0  0  0
 30 31  2  0  0  0
 31 32  1  0  0  0
 32 33  2  0  0  0
 33 34  1  0  0  0
 34 35  2  0  0  0
 35 36  1  0  0  0
 36 37  2  0  0  0
  9 10  1  0  0  0
 10 11  2  0  0  0
 11 12  1  0  0  0
 12 13  2  0  0  0
 13  4  1  0  0  0
 13  8  1  0  0  0
 26 20  1  0  0  0
 37 28  1  0  0  0
 37 32  1  0  0  0
  4 14  1  0  0  0
M  CHG 1   4   1
M  END
> <minimizedAffinity>
-8.44207

> <CNNscore>
0.2478823215

> <CNNaffinity>
6.5608315468

> <CNN_VS>
1.6263141632

> <CNNaffinity_variance>
0.1949695945

$$$$



 37 41  0  0  0  0  0  0  0  0999 V2000
   -9.2334   -0.3738  -23.8993 N   0  0  0  0  0  0  0  0  0  0  0  0
   -9.2485   -1.7605  -24.4710 C   0  0  0  0  0  0  0  0  0  0  0  0
  -10.5408   -2.3690  -24.9290 O   0  0  0  0  0  0  0  0  0  0  0  0
  -11.7296    4.1811  -23.7511 N   0  0  0  0  0  0  0  0  0  0  0  0
  -10.4232    4.9020  -23.9044 C   0  0  0  0  0  0  0  0  0  0  0  0
   -9.1459    4.1238  -24.0181 C   0  0  0  0  0  0  0  0  0  0  0  0
   -9.1751    2.6246  -23.9785 C   0  0  0  0  0  0  0  0  0  0  0  0
  -10.4815    1.9037  -23.8252 C   0  0  0  0  0  0  0  0  0  0  0  0
  -10.5107    0.4045  -23.7856 C   0  0  0  0  0  0  0  0  0  0  0  0
  -11.8171   -0.3164  -23.6324 C   0  0  0  0  0  0  0  0  0  0  0  0
  -13.0944    0.4618  -23.5187 C   0  0  0  0  0  0  0  0  0  0  0  0
  -13.0652    1.9610  -23.5583 C   0  0  0  0  0  0  0  0  0  0  0  0
  -11.7587    2.6820  -23.7115 C   0  0  0  0  0  0  0  0  0  0  0  0
  -10.8913    3.6703  -23.8258 H   0  0  0  0  0  0  0  0  0  0  0  0
  -13.0069    4.9594  -23.6374 C   0  0  0  0  0  0  0  0  0  0  0  0
  -13.8017    4.9148  -22.3662 O   0  0  0  0  0  0  0  0  0  0  0  0
  -13.3334    5.2699  -26.1961 C   0  0  0  0  0  0  0  0  0  0  0  0
  -13.4893    5.7823  -24.7950 C   0  0  0  0  0  0  0  0  0  0  0  0
   -7.9412    0.2346  -23.4414 C   0  0  0  0  0  0  0  0  0  0  0  0
   -7.3961   -0.0961  -22.0836 C   0  0  0  0  0  0  0  0  0  0  0  0
   -8.1332   -1.0507  -21.1917 C   0  0  0  0  0  0  0  0  0  0  0  0
   -7.5881   -1.3815  -19.8339 C   0  0  0  0  0  0  0  0  0  0  0  0
   -6.3059   -0.7576  -19.3681 C   0  0  0  0  0  0  0  0  0  0  0  0
   -5.5688    0.1969  -20.2601 C   0  0  0  0  0  0  0  0  0  0  0  0
   -4.2866    0.8208  -19.7943 Cl  0  0  0  0  0  0  0  0  0  0  0  0
   -6.1139    0.5277  -21.6178 C   0  0  0  0  0  0  0  0  0  0  0  0
   -7.9713   -2.5388  -24.5847 C   0  0  0  0  0  0  0  0  0  0  0  0
   -8.0106   -4.0354  -24.6771 C   0  0  0  0  0  0  0  0  0  0  0  0
   -8.7749   -4.6987  -25.7844 C   0  0  0  0  0  0  0  0  0  0  0  0
   -8.8142   -6.1953  -25.8768 N   0  0  0  0  0  0  0  0  0  0  0  0
   -8.0893   -7.0287  -24.8619 C   0  0  0  0  0  0  0  0  0  0  0  0
   -7.3250   -6.3654  -23.7546 C   0  0  0  0  0  0  0  0  0  0  0  0
   -6.6001   -7.1988  -22.7398 C   0  0  0  0  0  0  0  0  0  0  0  0
   -5.8358   -6.5355  -21.6325 C   0  0  0  0  0  0  0  0  0  0  0  0
   -5.7965   -5.0389  -21.5401 C   0  0  0  0  0  0  0  0  0  0  0  0
   -6.5214   -4.2055  -22.5550 C   0  0  0  0  0  0  0  0  0  0  0  0
   -7.2857   -4.8688  -23.6623 C   0  0  0  0  0  0  0  0  0  0  0  0
 17 18  1  0  0  0
 18 15  1  0  0  0
 15 16  2  0  0  0
  4 15  1  0  0  0
  4  5  1  0  0  0
  5  6  1  0  0  0
  6  7  1  0  0  0
  7  8  1  0  0  0
  8  9  2  0  0  0
  9  1  1  0  0  0
  1 19  1  0  0  0
 19 20  1  0  0  0
 20 21  2  0  0  0
 21 22  1  0  0  0
 22 23  2  0  0  0
 23 24  1  0  0  0
 24 25  1  0  0  0
 24 26  2  0  0  0
  1  2  1  0  0  0
  2  3  2  0  0  0
  2 27  1  0  0  0
 27 28  1  0  0  0
 28 29  2  0  0  0
 29 30  1  0  0  0
 30 31  2  0  0  0
 31 32  1  0  0  0
 32 33  2  0  0  0
 33 34  1  0  0  0
 34 35  2  0  0  0
 35 36  1  0  0  0
 36 37  2  0  0  0
  9 10  1  0  0  0
 10 11  2  0  0  0
 11 12  1  0  0  0
 12 13  2  0  0  0
 13  4  1  0  0  0
 13  8  1  0  0  0
 26 20  1  0  0  0
 37 28  1  0  0  0
 37 32  1  0  0  0
  4 14  1  0  0  0
M  CHG 1   4   1
M  END
> <minimizedAffinity>
-8.60502

> <CNNscore>
0.2429898381

> <CNNaffinity>
6.2979516983

> <CNN_VS>
1.5303382874

> <CNNaffinity_variance>
0.4028862417

$$$$



 37 41  0  0  0  0  0  0  0  0999 V2000
   -6.3178   -1.6286  -21.9166 N   0  0  0  0  0  0  0  0  0  0  0  0
   -6.1676   -3.1158  -21.7907 C   0  0  0  0  0  0  0  0  0  0  0  0
   -5.2098   -3.6907  -20.7898 O   0  0  0  0  0  0  0  0  0  0  0  0
   -2.3968    1.7287  -21.3214 N   0  0  0  0  0  0  0  0  0  0  0  0
   -2.0516    1.5831  -22.7739 C   0  0  0  0  0  0  0  0  0  0  0  0
   -2.8593    0.6709  -23.6489 C   0  0  0  0  0  0  0  0  0  0  0  0
   -4.0121   -0.0956  -23.0715 C   0  0  0  0  0  0  0  0  0  0  0  0
   -4.3573    0.0501  -21.6191 C   0  0  0  0  0  0  0  0  0  0  0  0
   -5.5101   -0.7164  -21.0416 C   0  0  0  0  0  0  0  0  0  0  0  0
   -5.8553   -0.5708  -19.5891 C   0  0  0  0  0  0  0  0  0  0  0  0
   -5.0476    0.3413  -18.7141 C   0  0  0  0  0  0  0  0  0  0  0  0
   -3.8948    1.1078  -19.2915 C   0  0  0  0  0  0  0  0  0  0  0  0
   -3.5496    0.9622  -20.7440 C   0  0  0  0  0  0  0  0  0  0  0  0
   -2.9269    1.1300  -21.8957 H   0  0  0  0  0  0  0  0  0  0  0  0
   -1.5891    2.6408  -20.4464 C   0  0  0  0  0  0  0  0  0  0  0  0
   -2.0507    4.0466  -20.2000 O   0  0  0  0  0  0  0  0  0  0  0  0
    0.6304    1.3005  -20.6115 C   0  0  0  0  0  0  0  0  0  0  0  0
   -0.3198    2.1472  -19.8177 C   0  0  0  0  0  0  0  0  0  0  0  0
   -7.2757   -1.0536  -22.9175 C   0  0  0  0  0  0  0  0  0  0  0  0
   -8.5735   -1.7506  -23.1999 C   0  0  0  0  0  0  0  0  0  0  0  0
   -9.6915   -1.6873  -22.2018 C   0  0  0  0  0  0  0  0  0  0  0  0
  -10.9893   -2.3843  -22.4841 C   0  0  0  0  0  0  0  0  0  0  0  0
  -11.1692   -3.1446  -23.7647 C   0  0  0  0  0  0  0  0  0  0  0  0
  -10.0513   -3.2079  -24.7627 C   0  0  0  0  0  0  0  0  0  0  0  0
  -10.2311   -3.9682  -26.0433 Cl  0  0  0  0  0  0  0  0  0  0  0  0
   -8.7534   -2.5109  -24.4803 C   0  0  0  0  0  0  0  0  0  0  0  0
   -6.9753   -4.0279  -22.6657 C   0  0  0  0  0  0  0  0  0  0  0  0
   -6.3538   -5.2717  -23.2285 C   0  0  0  0  0  0  0  0  0  0  0  0
   -6.3998   -6.5521  -22.4485 C   0  0  0  0  0  0  0  0  0  0  0  0
   -5.7784   -7.7958  -23.0113 N   0  0  0  0  0  0  0  0  0  0  0  0
   -5.1109   -7.7593  -24.3541 C   0  0  0  0  0  0  0  0  0  0  0  0
   -5.0649   -6.4788  -25.1341 C   0  0  0  0  0  0  0  0  0  0  0  0
   -4.3974   -6.4422  -26.4769 C   0  0  0  0  0  0  0  0  0  0  0  0
   -4.3515   -5.1618  -27.2569 C   0  0  0  0  0  0  0  0  0  0  0  0
   -4.9729   -3.9180  -26.6942 C   0  0  0  0  0  0  0  0  0  0  0  0
   -5.6404   -3.9546  -25.3513 C   0  0  0  0  0  0  0  0  0  0  0  0
   -5.6864   -5.2350  -24.5713 C   0  0  0  0  0  0  0  0  0  0  0  0
 17 18  1  0  0  0
 18 15  1  0  0  0
 15 16  2  0  0  0
  4 15  1  0  0  0
  4  5  1  0  0  0
  5  6  1  0  0  0
  6  7  1  0  0  0
  7  8  1  0  0  0
  8  9  2  0  0  0
  9  1  1  0  0  0
  1 19  1  0  0  0
 19 20  1  0  0  0
 20 21  2  0  0  0
 21 22  1  0  0  0
 22 23  2  0  0  0
 23 24  1  0  0  0
 24 25  1  0  0  0
 24 26  2  0  0  0
  1  2  1  0  0  0
  2  3  2  0  0  0
  2 27  1  0  0  0
 27 28  1  0  0  0
 28 29  2  0  0  0
 29 30  1  0  0  0
 30 31  2  0  0  0
 31 32  1  0  0  0
 32 33  2  0  0  0
 33 34  1  0  0  0
 34 35  2  0  0  0
 35 36  1  0  0  0
 36 37  2  0  0  0
  9 10  1  0  0  0
 10 11  2  0  0  0
 11 12  1  0  0  0
 12 13  2  0  0  0
 13  4  1  0  0  0
 13  8  1  0  0  0
 26 20  1  0  0  0
 37 28  1  0  0  0
 37 32  1  0  0  0
  4 14  1  0  0  0
M  CHG 1   4   1
M  END
> <minimizedAffinity>
-7.67597

> <CNNscore>
0.1589792669

> <CNNaffinity>
6.0039205551

> <CNN_VS>
0.9544988871

> <CNNaffinity_variance>
0.2522579730

$$$$
