


 37 41  0  0  0  0  0  0  0  0999 V2000
    6.7827   -1.0446   22.5214 N   0  0  0  0  0  0  0  0  0  0  0  0
    8.1762   -1.2804   22.0187 C   0  0  0  0  0  0  0  0  0  0  0  0
    8.7328   -0.4227   20.9213 O   0  0  0  0  0  0  0  0  0  0  0  0
    5.0878    3.8669   22.5878 N   0  0  0  0  0  0  0  0  0  0  0  0
    5.9140    4.1354   23.8105 C   0  0  0  0  0  0  0  0  0  0  0  0
    6.7508    3.0419   24.4054 C   0  0  0  0  0  0  0  0  0  0  0  0
    6.7614    1.6797   23.7774 C   0  0  0  0  0  0  0  0  0  0  0  0
    5.9353    1.4112   22.5546 C   0  0  0  0  0  0  0  0  0  0  0  0
    5.9459    0.0489   21.9266 C   0  0  0  0  0  0  0  0  0  0  0  0
    5.1197   -0.2196   20.7038 C   0  0  0  0  0  0  0  0  0  0  0  0
    4.2828    0.8739   20.1090 C   0  0  0  0  0  0  0  0  0  0  0  0
    4.2722    2.2361   20.7370 C   0  0  0  0  0  0  0  0  0  0  0  0
    5.0984    2.5047   21.9598 C   0  0  0  0  0  0  0  0  0  0  0  0
    5.6370    3.1491   22.9782 H   0  0  0  0  0  0  0  0  0  0  0  0
    4.2509    4.9604   21.9930 C   0  0  0  0  0  0  0  0  0  0  0  0
    2.8182    4.6980   21.6348 O   0  0  0  0  0  0  0  0  0  0  0  0
    6.1693    6.4434   21.0599 C   0  0  0  0  0  0  0  0  0  0  0  0
    4.8468    6.3165   21.7563 C   0  0  0  0  0  0  0  0  0  0  0  0
    6.2261   -1.9024   23.6188 C   0  0  0  0  0  0  0  0  0  0  0  0
    6.2770   -3.3969   23.5016 C   0  0  0  0  0  0  0  0  0  0  0  0
    6.6892   -4.2281   24.6804 C   0  0  0  0  0  0  0  0  0  0  0  0
    6.7401   -5.7226   24.5632 C   0  0  0  0  0  0  0  0  0  0  0  0
    6.3788   -6.3860   23.2672 C   0  0  0  0  0  0  0  0  0  0  0  0
    5.9666   -5.5549   22.0886 C   0  0  0  0  0  0  0  0  0  0  0  0
    5.6053   -6.2183   20.7926 Cl  0  0  0  0  0  0  0  0  0  0  0  0
    5.9157   -4.0603   22.2058 C   0  0  0  0  0  0  0  0  0  0  0  0
    9.0131   -2.3740   22.6135 C   0  0  0  0  0  0  0  0  0  0  0  0
   10.3631   -2.0583   23.1860 C   0  0  0  0  0  0  0  0  0  0  0  0
   11.2773   -1.1079   22.4711 C   0  0  0  0  0  0  0  0  0  0  0  0
   12.6273   -0.7922   23.0436 N   0  0  0  0  0  0  0  0  0  0  0  0
   13.0631   -1.4269   24.3310 C   0  0  0  0  0  0  0  0  0  0  0  0
   12.1489   -2.3773   25.0458 C   0  0  0  0  0  0  0  0  0  0  0  0
   12.5847   -3.0120   26.3331 C   0  0  0  0  0  0  0  0  0  0  0  0
   11.6705   -3.9624   27.0480 C   0  0  0  0  0  0  0  0  0  0  0  0
   10.3205   -4.2781   26.4755 C   0  0  0  0  0  0  0  0  0  0  0  0
    9.8846   -3.6434   25.1881 C   0  0  0  0  0  0  0  0  0  0  0  0
   10.7989   -2.6930   24.4733 C   0  0  0  0  0  0  0  0  0  0  0  0
 17 18  1  0  0  0
 18 15  1  0  0  0
 15 16  2  0  0  0
  4 15  1  0  0  0
  4  5  1  0  0  0
  5  6  1  0  0  0
  6  7  1  0  0  0
  7  8  1  0  0  0
  8  9  2  0  0  0
  9  1  1  0  0  0
  1 19  1  0  0  0
 19 20  1  0  0  0
 20 21  2  0  0  0
 21 22  1  0  0  0
 22 23  2  0  0  0
 23 24  1  0  0  0
 24 25  1  0  0  0
 24 26  2  0  0  0
  1  2  1  0  0  0
  2  3  2  0  0  0
  2 27  1  0  0  0
 27 28  1  0  0  0
 28 29  2  0  0  0
 29 30  1  0  0  0
 30 31  2  0  0  0
 31 32  1  0  0  0
 32 33  2  0  0  0
 33 34  1  0  0  0
 34 35  2  0  0  0
 35 36  1  0  0  0
 36 37  2  0  0  0
  9 10  1  0  0  0
 10 11  2  0  0  0
 11 12  1  0  0  0
 12 13  2  0  0  0
 13  4  1  0  0  0
 13  8  1  0  0  0
 26 20  1  0  0  0
 37 28  1  0  0  0
 37 32  1  0  0  0
  4 14  1  0  0  0
M  CHG 1   4   1
M  END
> <minimizedAffinity>
-7.92084

> <CNNscore>
0.5414158106

> <CNNaffinity>
6.9513196945

> <CNN_VS>
3.7635543346

> <CNNaffinity_variance>
0.0362599716

$$$$



 37 41  0  0  0  0  0  0  0  0999 V2000
    6.9523   -0.9209   23.9896 N   0  0  0  0  0  0  0  0  0  0  0  0
    7.0894   -2.3663   23.6123 C   0  0  0  0  0  0  0  0  0  0  0  0
    5.9472   -3.0810   22.9533 O   0  0  0  0  0  0  0  0  0  0  0  0
    3.7722    1.4563   20.6376 N   0  0  0  0  0  0  0  0  0  0  0  0
    4.7410    1.1837   19.5253 C   0  0  0  0  0  0  0  0  0  0  0  0
    6.0204    0.4532   19.8071 C   0  0  0  0  0  0  0  0  0  0  0  0
    6.3310   -0.0048   21.2012 C   0  0  0  0  0  0  0  0  0  0  0  0
    5.3623    0.2677   22.3135 C   0  0  0  0  0  0  0  0  0  0  0  0
    5.6729   -0.1904   23.7078 C   0  0  0  0  0  0  0  0  0  0  0  0
    4.7042    0.0822   24.8201 C   0  0  0  0  0  0  0  0  0  0  0  0
    3.4248    0.8127   24.5382 C   0  0  0  0  0  0  0  0  0  0  0  0
    3.1142    1.2708   23.1441 C   0  0  0  0  0  0  0  0  0  0  0  0
    4.0829    0.9982   22.0317 C   0  0  0  0  0  0  0  0  0  0  0  0
    4.6119    0.9768   20.8226 H   0  0  0  0  0  0  0  0  0  0  0  0
    2.4928    2.1868   20.3557 C   0  0  0  0  0  0  0  0  0  0  0  0
    1.1812    1.4648   20.4467 O   0  0  0  0  0  0  0  0  0  0  0  0
    1.4695    4.5704   20.5015 C   0  0  0  0  0  0  0  0  0  0  0  0
    2.5251    3.6394   19.9829 C   0  0  0  0  0  0  0  0  0  0  0  0
    8.0946   -0.2062   24.6487 C   0  0  0  0  0  0  0  0  0  0  0  0
    8.5956    1.0893   24.0824 C   0  0  0  0  0  0  0  0  0  0  0  0
    7.6731    2.2672   23.9741 C   0  0  0  0  0  0  0  0  0  0  0  0
    8.1741    3.5626   23.4079 C   0  0  0  0  0  0  0  0  0  0  0  0
    9.5977    3.6803   22.9498 C   0  0  0  0  0  0  0  0  0  0  0  0
   10.5201    2.5025   23.0581 C   0  0  0  0  0  0  0  0  0  0  0  0
   11.9437    2.6201   22.6001 Cl  0  0  0  0  0  0  0  0  0  0  0  0
   10.0191    1.2070   23.6244 C   0  0  0  0  0  0  0  0  0  0  0  0
    8.3688   -3.0968   23.8942 C   0  0  0  0  0  0  0  0  0  0  0  0
    9.6792   -2.5089   23.4614 C   0  0  0  0  0  0  0  0  0  0  0  0
    9.8149   -1.9030   22.0960 C   0  0  0  0  0  0  0  0  0  0  0  0
   11.1253   -1.3151   21.6632 N   0  0  0  0  0  0  0  0  0  0  0  0
   12.3000   -1.3332   22.5958 C   0  0  0  0  0  0  0  0  0  0  0  0
   12.1643   -1.9391   23.9613 C   0  0  0  0  0  0  0  0  0  0  0  0
   13.3389   -1.9572   24.8939 C   0  0  0  0  0  0  0  0  0  0  0  0
   13.2032   -2.5631   26.2594 C   0  0  0  0  0  0  0  0  0  0  0  0
   11.8928   -3.1510   26.6921 C   0  0  0  0  0  0  0  0  0  0  0  0
   10.7181   -3.1330   25.7595 C   0  0  0  0  0  0  0  0  0  0  0  0
   10.8538   -2.5270   24.3940 C   0  0  0  0  0  0  0  0  0  0  0  0
 17 18  1  0  0  0
 18 15  1  0  0  0
 15 16  2  0  0  0
  4 15  1  0  0  0
  4  5  1  0  0  0
  5  6  1  0  0  0
  6  7  1  0  0  0
  7  8  1  0  0  0
  8  9  2  0  0  0
  9  1  1  0  0  0
  1 19  1  0  0  0
 19 20  1  0  0  0
 20 21  2  0  0  0
 21 22  1  0  0  0
 22 23  2  0  0  0
 23 24  1  0  0  0
 24 25  1  0  0  0
 24 26  2  0  0  0
  1  2  1  0  0  0
  2  3  2  0  0  0
  2 27  1  0  0  0
 27 28  1  0  0  0
 28 29  2  0  0  0
 29 30  1  0  0  0
 30 31  2  0  0  0
 31 32  1  0  0  0
 32 33  2  0  0  0
 33 34  1  0  0  0
 34 35  2  0  0  0
 35 36  1  0  0  0
 36 37  2  0  0  0
  9 10  1  0  0  0
 10 11  2  0  0  0
 11 12  1  0  0  0
 12 13  2  0  0  0
 13  4  1  0  0  0
 13  8  1  0  0  0
 26 20  1  0  0  0
 37 28  1  0  0  0
 37 32  1  0  0  0
  4 14  1  0  0  0
M  CHG 1   4   1
M  END
> <minimizedAffinity>
-7.88824

> <CNNscore>
0.5210409760

> <CNNaffinity>
6.8548078537

> <CNN_VS>
3.5716357231

> <CNNaffinity_variance>
0.0858387426

$$$$



 37 41  0  0  0  0  0  0  0  0999 V2000
    8.9992   -0.7383   23.7346 N   0  0  0  0  0  0  0  0  0  0  0  0
    8.1433   -1.3325   22.6554 C   0  0  0  0  0  0  0  0  0  0  0  0
    8.2083   -0.7855   21.2602 O   0  0  0  0  0  0  0  0  0  0  0  0
    9.7937    4.3551   23.0822 N   0  0  0  0  0  0  0  0  0  0  0  0
    8.3493    4.6196   23.3881 C   0  0  0  0  0  0  0  0  0  0  0  0
    7.4284    3.4785   23.7041 C   0  0  0  0  0  0  0  0  0  0  0  0
    7.9520    2.0729   23.7143 C   0  0  0  0  0  0  0  0  0  0  0  0
    9.3964    1.8084   23.4084 C   0  0  0  0  0  0  0  0  0  0  0  0
    9.9200    0.4028   23.4185 C   0  0  0  0  0  0  0  0  0  0  0  0
   11.3645    0.1383   23.1126 C   0  0  0  0  0  0  0  0  0  0  0  0
   12.2853    1.2794   22.7965 C   0  0  0  0  0  0  0  0  0  0  0  0
   11.7618    2.6850   22.7864 C   0  0  0  0  0  0  0  0  0  0  0  0
   10.3172    2.9495   23.0923 C   0  0  0  0  0  0  0  0  0  0  0  0
    9.1893    3.6062   23.2896 H   0  0  0  0  0  0  0  0  0  0  0  0
   10.7145    5.4962   22.7661 C   0  0  0  0  0  0  0  0  0  0  0  0
   11.6448    5.4064   21.5928 O   0  0  0  0  0  0  0  0  0  0  0  0
    9.4167    7.4492   23.8847 C   0  0  0  0  0  0  0  0  0  0  0  0
   10.7052    6.7271   23.6233 C   0  0  0  0  0  0  0  0  0  0  0  0
    8.9342   -1.2853   25.1297 C   0  0  0  0  0  0  0  0  0  0  0  0
    9.9503   -2.2880   25.5903 C   0  0  0  0  0  0  0  0  0  0  0  0
    9.5344   -3.7008   25.8749 C   0  0  0  0  0  0  0  0  0  0  0  0
   10.5506   -4.7035   26.3355 C   0  0  0  0  0  0  0  0  0  0  0  0
   11.9827   -4.2932   26.5116 C   0  0  0  0  0  0  0  0  0  0  0  0
   12.3985   -2.8804   26.2270 C   0  0  0  0  0  0  0  0  0  0  0  0
   13.8306   -2.4701   26.4031 Cl  0  0  0  0  0  0  0  0  0  0  0  0
   11.3823   -1.8778   25.7664 C   0  0  0  0  0  0  0  0  0  0  0  0
    7.2224   -2.4736   22.9715 C   0  0  0  0  0  0  0  0  0  0  0  0
    6.1454   -2.3049   24.0018 C   0  0  0  0  0  0  0  0  0  0  0  0
    5.5990   -0.9400   24.2991 C   0  0  0  0  0  0  0  0  0  0  0  0
    4.5220   -0.7714   25.3294 N   0  0  0  0  0  0  0  0  0  0  0  0
    3.9914   -1.9678   26.0625 C   0  0  0  0  0  0  0  0  0  0  0  0
    4.5378   -3.3327   25.7652 C   0  0  0  0  0  0  0  0  0  0  0  0
    4.0073   -4.5290   26.4982 C   0  0  0  0  0  0  0  0  0  0  0  0
    4.5538   -5.8939   26.2009 C   0  0  0  0  0  0  0  0  0  0  0  0
    5.6307   -6.0625   25.1705 C   0  0  0  0  0  0  0  0  0  0  0  0
    6.1613   -4.8662   24.4375 C   0  0  0  0  0  0  0  0  0  0  0  0
    5.6149   -3.5013   24.7348 C   0  0  0  0  0  0  0  0  0  0  0  0
 17 18  1  0  0  0
 18 15  1  0  0  0
 15 16  2  0  0  0
  4 15  1  0  0  0
  4  5  1  0  0  0
  5  6  1  0  0  0
  6  7  1  0  0  0
  7  8  1  0  0  0
  8  9  2  0  0  0
  9  1  1  0  0  0
  1 19  1  0  0  0
 19 20  1  0  0  0
 20 21  2  0  0  0
 21 22  1  0  0  0
 22 23  2  0  0  0
 23 24  1  0  0  0
 24 25  1  0  0  0
 24 26  2  0  0  0
  1  2  1  0  0  0
  2  3  2  0  0  0
  2 27  1  0  0  0
 27 28  1  0  0  0
 28 29  2  0  0  0
 29 30  1  0  0  0
 30 31  2  0  0  0
 31 32  1  0  0  0
 32 33  2  0  0  0
 33 34  1  0  0  0
 34 35  2  0  0  0
 35 36  1  0  0  0
 36 37  2  0  0  0
  9 10  1  0  0  0
 10 11  2  0  0  0
 11 12  1  0  0  0
 12 13  2  0  0  0
 13  4  1  0  0  0
 13  8  1  0  0  0
 26 20  1  0  0  0
 37 28  1  0  0  0
 37 32  1  0  0  0
  4 14  1  0  0  0
M  CHG 1   4   1
M  END
> <minimizedAffinity>
-7.73544

> <CNNscore>
0.5058571100

> <CNNaffinity>
6.9446096420

> <CNN_VS>
3.5129802227

> <CNNaffinity_variance>
0.0648079142

$$$$



 37 41  0  0  0  0  0  0  0  0999 V2000
    7.4714   -2.3916   24.3533 N   0  0  0  0  0  0  0  0  0  0  0  0
    7.3819   -1.6666   23.0431 C   0  0  0  0  0  0  0  0  0  0  0  0
    6.6006   -2.2610   21.9090 O   0  0  0  0  0  0  0  0  0  0  0  0
    3.4890   -5.1742   26.1966 N   0  0  0  0  0  0  0  0  0  0  0  0
    2.8812   -3.9268   26.7664 C   0  0  0  0  0  0  0  0  0  0  0  0
    3.5729   -2.6075   26.5904 C   0  0  0  0  0  0  0  0  0  0  0  0
    4.8724   -2.5355   25.8447 C   0  0  0  0  0  0  0  0  0  0  0  0
    5.4802   -3.7829   25.2750 C   0  0  0  0  0  0  0  0  0  0  0  0
    6.7797   -3.7109   24.5293 C   0  0  0  0  0  0  0  0  0  0  0  0
    7.3875   -4.9583   23.9595 C   0  0  0  0  0  0  0  0  0  0  0  0
    6.6958   -6.2776   24.1354 C   0  0  0  0  0  0  0  0  0  0  0  0
    5.3964   -6.3496   24.8811 C   0  0  0  0  0  0  0  0  0  0  0  0
    4.7885   -5.1022   25.4509 C   0  0  0  0  0  0  0  0  0  0  0  0
    3.9430   -4.3083   26.0811 H   0  0  0  0  0  0  0  0  0  0  0  0
    2.7973   -6.4935   26.3725 C   0  0  0  0  0  0  0  0  0  0  0  0
    2.0947   -7.1327   25.2116 O   0  0  0  0  0  0  0  0  0  0  0  0
    4.0451   -7.1411   28.5574 C   0  0  0  0  0  0  0  0  0  0  0  0
    2.8082   -7.1736   27.7094 C   0  0  0  0  0  0  0  0  0  0  0  0
    8.2526   -1.7972   25.4875 C   0  0  0  0  0  0  0  0  0  0  0  0
    9.5651   -2.4006   25.8916 C   0  0  0  0  0  0  0  0  0  0  0  0
    9.5964   -3.7214   26.6020 C   0  0  0  0  0  0  0  0  0  0  0  0
   10.9089   -4.3247   27.0061 C   0  0  0  0  0  0  0  0  0  0  0  0
   12.1901   -3.6073   26.6997 C   0  0  0  0  0  0  0  0  0  0  0  0
   12.1588   -2.2866   25.9893 C   0  0  0  0  0  0  0  0  0  0  0  0
   13.4401   -1.5692   25.6829 Cl  0  0  0  0  0  0  0  0  0  0  0  0
   10.8463   -1.6832   25.5852 C   0  0  0  0  0  0  0  0  0  0  0  0
    8.0735   -0.3473   22.8672 C   0  0  0  0  0  0  0  0  0  0  0  0
    9.5609   -0.2995   22.6787 C   0  0  0  0  0  0  0  0  0  0  0  0
   10.3209   -1.5596   22.3880 C   0  0  0  0  0  0  0  0  0  0  0  0
   11.8082   -1.5117   22.1996 N   0  0  0  0  0  0  0  0  0  0  0  0
   12.5356   -0.2038   22.3018 C   0  0  0  0  0  0  0  0  0  0  0  0
   11.7755    1.0563   22.5925 C   0  0  0  0  0  0  0  0  0  0  0  0
   12.5027    2.3642   22.6947 C   0  0  0  0  0  0  0  0  0  0  0  0
   11.7426    3.6242   22.9854 C   0  0  0  0  0  0  0  0  0  0  0  0
   10.2553    3.5764   23.1739 C   0  0  0  0  0  0  0  0  0  0  0  0
    9.5280    2.2685   23.0717 C   0  0  0  0  0  0  0  0  0  0  0  0
   10.2881    1.0084   22.7810 C   0  0  0  0  0  0  0  0  0  0  0  0
 17 18  1  0  0  0
 18 15  1  0  0  0
 15 16  2  0  0  0
  4 15  1  0  0  0
  4  5  1  0  0  0
  5  6  1  0  0  0
  6  7  1  0  0  0
  7  8  1  0  0  0
  8  9  2  0  0  0
  9  1  1  0  0  0
  1 19  1  0  0  0
 19 20  1  0  0  0
 20 21  2  0  0  0
 21 22  1  0  0  0
 22 23  2  0  0  0
 23 24  1  0  0  0
 24 25  1  0  0  0
 24 26  2  0  0  0
  1  2  1  0  0  0
  2  3  2  0  0  0
  2 27  1  0  0  0
 27 28  1  0  0  0
 28 29  2  0  0  0
 29 30  1  0  0  0
 30 31  2  0  0  0
 31 32  1  0  0  0
 32 33  2  0  0  0
 33 34  1  0  0  0
 34 35  2  0  0  0
 35 36  1  0  0  0
 36 37  2  0  0  0
  9 10  1  0  0  0
 10 11  2  0  0  0
 11 12  1  0  0  0
 12 13  2  0  0  0
 13  4  1  0  0  0
 13  8  1  0  0  0
 26 20  1  0  0  0
 37 28  1  0  0  0
 37 32  1  0  0  0
  4 14  1  0  0  0
M  CHG 1   4   1
M  END
> <minimizedAffinity>
-7.50934

> <CNNscore>
0.4798635542

> <CNNaffinity>
6.8631005287

> <CNN_VS>
3.2933518887

> <CNNaffinity_variance>
0.0778097436

$$$$



 37 41  0  0  0  0  0  0  0  0999 V2000
    6.4854   -1.3159   22.0846 N   0  0  0  0  0  0  0  0  0  0  0  0
    7.9816   -1.2623   21.9909 C   0  0  0  0  0  0  0  0  0  0  0  0
    8.6384   -0.3589   20.9897 O   0  0  0  0  0  0  0  0  0  0  0  0
    2.6732    2.1517   21.4196 N   0  0  0  0  0  0  0  0  0  0  0  0
    2.4456    2.1858   22.9018 C   0  0  0  0  0  0  0  0  0  0  0  0
    3.2849    1.3360   23.8092 C   0  0  0  0  0  0  0  0  0  0  0  0
    4.3517    0.4520   23.2344 C   0  0  0  0  0  0  0  0  0  0  0  0
    4.5793    0.4179   21.7521 C   0  0  0  0  0  0  0  0  0  0  0  0
    5.6462   -0.4661   21.1772 C   0  0  0  0  0  0  0  0  0  0  0  0
    5.8737   -0.5002   19.6950 C   0  0  0  0  0  0  0  0  0  0  0  0
    5.0345    0.3497   18.7876 C   0  0  0  0  0  0  0  0  0  0  0  0
    3.9676    1.2337   19.3624 C   0  0  0  0  0  0  0  0  0  0  0  0
    3.7400    1.2678   20.8447 C   0  0  0  0  0  0  0  0  0  0  0  0
    3.2240    1.5939   22.0151 H   0  0  0  0  0  0  0  0  0  0  0  0
    1.8339    3.0016   20.5122 C   0  0  0  0  0  0  0  0  0  0  0  0
    2.1859    4.4438   20.2976 O   0  0  0  0  0  0  0  0  0  0  0  0
   -0.5018    1.8696   20.6248 C   0  0  0  0  0  0  0  0  0  0  0  0
    0.6427    2.4093   19.8193 C   0  0  0  0  0  0  0  0  0  0  0  0
    5.8286   -2.2194   23.0858 C   0  0  0  0  0  0  0  0  0  0  0  0
    6.0936   -3.6954   23.0514 C   0  0  0  0  0  0  0  0  0  0  0  0
    6.7262   -4.3715   24.2316 C   0  0  0  0  0  0  0  0  0  0  0  0
    6.9913   -5.8475   24.1973 C   0  0  0  0  0  0  0  0  0  0  0  0
    6.6237   -6.6474   22.9827 C   0  0  0  0  0  0  0  0  0  0  0  0
    5.9911   -5.9713   21.8026 C   0  0  0  0  0  0  0  0  0  0  0  0
    5.6236   -6.7712   20.5880 Cl  0  0  0  0  0  0  0  0  0  0  0  0
    5.7261   -4.4953   21.8369 C   0  0  0  0  0  0  0  0  0  0  0  0
    8.8208   -2.1122   22.8983 C   0  0  0  0  0  0  0  0  0  0  0  0
   10.1994   -1.6636   23.2832 C   0  0  0  0  0  0  0  0  0  0  0  0
   10.8664   -0.5546   22.5246 C   0  0  0  0  0  0  0  0  0  0  0  0
   12.2450   -0.1061   22.9095 N   0  0  0  0  0  0  0  0  0  0  0  0
   12.9567   -0.7664   24.0530 C   0  0  0  0  0  0  0  0  0  0  0  0
   12.2897   -1.8754   24.8115 C   0  0  0  0  0  0  0  0  0  0  0  0
   13.0013   -2.5358   25.9549 C   0  0  0  0  0  0  0  0  0  0  0  0
   12.3344   -3.6447   26.7135 C   0  0  0  0  0  0  0  0  0  0  0  0
   10.9558   -4.0933   26.3286 C   0  0  0  0  0  0  0  0  0  0  0  0
   10.2441   -3.4329   25.1851 C   0  0  0  0  0  0  0  0  0  0  0  0
   10.9110   -2.3240   24.4266 C   0  0  0  0  0  0  0  0  0  0  0  0
 17 18  1  0  0  0
 18 15  1  0  0  0
 15 16  2  0  0  0
  4 15  1  0  0  0
  4  5  1  0  0  0
  5  6  1  0  0  0
  6  7  1  0  0  0
  7  8  1  0  0  0
  8  9  2  0  0  0
  9  1  1  0  0  0
  1 19  1  0  0  0
 19 20  1  0  0  0
 20 21  2  0  0  0
 21 22  1  0  0  0
 22 23  2  0  0  0
 23 24  1  0  0  0
 24 25  1  0  0  0
 24 26  2  0  0  0
  1  2  1  0  0  0
  2  3  2  0  0  0
  2 27  1  0  0  0
 27 28  1  0  0  0
 28 29  2  0  0  0
 29 30  1  0  0  0
 30 31  2  0  0  0
 31 32  1  0  0  0
 32 33  2  0  0  0
 33 34  1  0  0  0
 34 35  2  0  0  0
 35 36  1  0  0  0
 36 37  2  0  0  0
  9 10  1  0  0  0
 10 11  2  0  0  0
 11 12  1  0  0  0
 12 13  2  0  0  0
 13  4  1  0  0  0
 13  8  1  0  0  0
 26 20  1  0  0  0
 37 28  1  0  0  0
 37 32  1  0  0  0
  4 14  1  0  0  0
M  CHG 1   4   1
M  END
> <minimizedAffinity>
-8.50943

> <CNNscore>
0.4355840385

> <CNNaffinity>
6.6312828064

> <CNN_VS>
2.8884809017

> <CNNaffinity_variance>
0.1859280616

$$$$



 37 41  0  0  0  0  0  0  0  0999 V2000
    8.0590   -0.5373   23.6761 N   0  0  0  0  0  0  0  0  0  0  0  0
    7.1712   -0.5316   22.4671 C   0  0  0  0  0  0  0  0  0  0  0  0
    5.9218   -1.3615   22.4501 O   0  0  0  0  0  0  0  0  0  0  0  0
    5.3929   -1.1614   28.0923 N   0  0  0  0  0  0  0  0  0  0  0  0
    4.7832    0.1977   27.9163 C   0  0  0  0  0  0  0  0  0  0  0  0
    5.1448    1.0333   26.7242 C   0  0  0  0  0  0  0  0  0  0  0  0
    6.1162    0.5098   25.7082 C   0  0  0  0  0  0  0  0  0  0  0  0
    6.7259   -0.8493   25.8842 C   0  0  0  0  0  0  0  0  0  0  0  0
    7.6974   -1.3729   24.8682 C   0  0  0  0  0  0  0  0  0  0  0  0
    8.3071   -2.7320   25.0442 C   0  0  0  0  0  0  0  0  0  0  0  0
    7.9455   -3.5676   26.2363 C   0  0  0  0  0  0  0  0  0  0  0  0
    6.9741   -3.0441   27.2523 C   0  0  0  0  0  0  0  0  0  0  0  0
    6.3643   -1.6849   27.0763 C   0  0  0  0  0  0  0  0  0  0  0  0
    5.6303   -0.6130   27.3099 H   0  0  0  0  0  0  0  0  0  0  0  0
    5.0313   -1.9970   29.2844 C   0  0  0  0  0  0  0  0  0  0  0  0
    5.7306   -1.7787   30.5933 O   0  0  0  0  0  0  0  0  0  0  0  0
    3.2264   -3.5048   30.3884 C   0  0  0  0  0  0  0  0  0  0  0  0
    3.9704   -3.0509   29.1675 C   0  0  0  0  0  0  0  0  0  0  0  0
    9.3084    0.2926   23.6931 C   0  0  0  0  0  0  0  0  0  0  0  0
   10.6476   -0.3647   23.5370 C   0  0  0  0  0  0  0  0  0  0  0  0
   11.1905   -0.6446   22.1669 C   0  0  0  0  0  0  0  0  0  0  0  0
   12.5297   -1.3020   22.0108 C   0  0  0  0  0  0  0  0  0  0  0  0
   13.3260   -1.6794   23.2247 C   0  0  0  0  0  0  0  0  0  0  0  0
   12.7831   -1.3995   24.5947 C   0  0  0  0  0  0  0  0  0  0  0  0
   13.5794   -1.7770   25.8086 Cl  0  0  0  0  0  0  0  0  0  0  0  0
   11.4439   -0.7422   24.7508 C   0  0  0  0  0  0  0  0  0  0  0  0
    7.5328    0.3040   21.2750 C   0  0  0  0  0  0  0  0  0  0  0  0
    6.5733    0.4309   20.1291 C   0  0  0  0  0  0  0  0  0  0  0  0
    6.7505   -0.4177   18.9050 C   0  0  0  0  0  0  0  0  0  0  0  0
    5.7909   -0.2908   17.7591 N   0  0  0  0  0  0  0  0  0  0  0  0
    4.6541    0.6847   17.8373 C   0  0  0  0  0  0  0  0  0  0  0  0
    4.4769    1.5333   19.0614 C   0  0  0  0  0  0  0  0  0  0  0  0
    3.3401    2.5088   19.1397 C   0  0  0  0  0  0  0  0  0  0  0  0
    3.1629    3.3573   20.3638 C   0  0  0  0  0  0  0  0  0  0  0  0
    4.1224    3.2305   21.5097 C   0  0  0  0  0  0  0  0  0  0  0  0
    5.2593    2.2549   21.4315 C   0  0  0  0  0  0  0  0  0  0  0  0
    5.4365    1.4064   20.2074 C   0  0  0  0  0  0  0  0  0  0  0  0
 17 18  1  0  0  0
 18 15  1  0  0  0
 15 16  2  0  0  0
  4 15  1  0  0  0
  4  5  1  0  0  0
  5  6  1  0  0  0
  6  7  1  0  0  0
  7  8  1  0  0  0
  8  9  2  0  0  0
  9  1  1  0  0  0
  1 19  1  0  0  0
 19 20  1  0  0  0
 20 21  2  0  0  0
 21 22  1  0  0  0
 22 23  2  0  0  0
 23 24  1  0  0  0
 24 25  1  0  0  0
 24 26  2  0  0  0
  1  2  1  0  0  0
  2  3  2  0  0  0
  2 27  1  0  0  0
 27 28  1  0  0  0
 28 29  2  0  0  0
 29 30  1  0  0  0
 30 31  2  0  0  0
 31 32  1  0  0  0
 32 33  2  0  0  0
 33 34  1  0  0  0
 34 35  2  0  0  0
 35 36  1  0  0  0
 36 37  2  0  0  0
  9 10  1  0  0  0
 10 11  2  0  0  0
 11 12  1  0  0  0
 12 13  2  0  0  0
 13  4  1  0  0  0
 13  8  1  0  0  0
 26 20  1  0  0  0
 37 28  1  0  0  0
 37 32  1  0  0  0
  4 14  1  0  0  0
M  CHG 1   4   1
M  END
> <minimizedAffinity>
-7.65116

> <CNNscore>
0.4334389567

> <CNNaffinity>
6.5501379967

> <CNN_VS>
2.8390848637

> <CNNaffinity_variance>
0.1160766929

$$$$



 37 41  0  0  0  0  0  0  0  0999 V2000
    6.7709   -2.0410   23.3445 N   0  0  0  0  0  0  0  0  0  0  0  0
    6.1615   -1.5560   22.0625 C   0  0  0  0  0  0  0  0  0  0  0  0
    5.2005   -2.4292   21.3114 O   0  0  0  0  0  0  0  0  0  0  0  0
    4.0599   -5.0293   26.6188 N   0  0  0  0  0  0  0  0  0  0  0  0
    3.4076   -3.8072   27.1941 C   0  0  0  0  0  0  0  0  0  0  0  0
    3.7592   -2.4491   26.6632 C   0  0  0  0  0  0  0  0  0  0  0  0
    4.7631   -2.3130   25.5570 C   0  0  0  0  0  0  0  0  0  0  0  0
    5.4154   -3.5351   24.9817 C   0  0  0  0  0  0  0  0  0  0  0  0
    6.4193   -3.3991   23.8754 C   0  0  0  0  0  0  0  0  0  0  0  0
    7.0716   -4.6212   23.3002 C   0  0  0  0  0  0  0  0  0  0  0  0
    6.7200   -5.9793   23.8311 C   0  0  0  0  0  0  0  0  0  0  0  0
    5.7161   -6.1153   24.9373 C   0  0  0  0  0  0  0  0  0  0  0  0
    5.0638   -4.8932   25.5126 C   0  0  0  0  0  0  0  0  0  0  0  0
    4.2907   -4.1379   26.2703 H   0  0  0  0  0  0  0  0  0  0  0  0
    3.7083   -6.3874   27.1497 C   0  0  0  0  0  0  0  0  0  0  0  0
    4.4681   -6.9589   28.3099 O   0  0  0  0  0  0  0  0  0  0  0  0
    1.9047   -6.6482   25.2981 C   0  0  0  0  0  0  0  0  0  0  0  0
    2.5970   -7.1741   26.5204 C   0  0  0  0  0  0  0  0  0  0  0  0
    7.7318   -1.1678   24.0956 C   0  0  0  0  0  0  0  0  0  0  0  0
    9.2080   -1.3110   23.8713 C   0  0  0  0  0  0  0  0  0  0  0  0
    9.7499   -1.3931   22.4749 C   0  0  0  0  0  0  0  0  0  0  0  0
   11.2261   -1.5363   22.2506 C   0  0  0  0  0  0  0  0  0  0  0  0
   12.1604   -1.5973   23.4226 C   0  0  0  0  0  0  0  0  0  0  0  0
   11.6184   -1.5152   24.8188 C   0  0  0  0  0  0  0  0  0  0  0  0
   12.5527   -1.5762   25.9908 Cl  0  0  0  0  0  0  0  0  0  0  0  0
   10.1422   -1.3720   25.0431 C   0  0  0  0  0  0  0  0  0  0  0  0
    6.5130   -0.1979   21.5316 C   0  0  0  0  0  0  0  0  0  0  0  0
    5.9263    0.2754   20.2348 C   0  0  0  0  0  0  0  0  0  0  0  0
    6.6274   -0.0200   18.9421 C   0  0  0  0  0  0  0  0  0  0  0  0
    6.0406    0.4533   17.6454 N   0  0  0  0  0  0  0  0  0  0  0  0
    4.7526    1.2222   17.6413 C   0  0  0  0  0  0  0  0  0  0  0  0
    4.0514    1.5176   18.9340 C   0  0  0  0  0  0  0  0  0  0  0  0
    2.7635    2.2865   18.9300 C   0  0  0  0  0  0  0  0  0  0  0  0
    2.0623    2.5819   20.2227 C   0  0  0  0  0  0  0  0  0  0  0  0
    2.6491    2.1086   21.5194 C   0  0  0  0  0  0  0  0  0  0  0  0
    3.9372    1.3397   21.5235 C   0  0  0  0  0  0  0  0  0  0  0  0
    4.6383    1.0443   20.2308 C   0  0  0  0  0  0  0  0  0  0  0  0
 17 18  1  0  0  0
 18 15  1  0  0  0
 15 16  2  0  0  0
  4 15  1  0  0  0
  4  5  1  0  0  0
  5  6  1  0  0  0
  6  7  1  0  0  0
  7  8  1  0  0  0
  8  9  2  0  0  0
  9  1  1  0  0  0
  1 19  1  0  0  0
 19 20  1  0  0  0
 20 21  2  0  0  0
 21 22  1  0  0  0
 22 23  2  0  0  0
 23 24  1  0  0  0
 24 25  1  0  0  0
 24 26  2  0  0  0
  1  2  1  0  0  0
  2  3  2  0  0  0
  2 27  1  0  0  0
 27 28  1  0  0  0
 28 29  2  0  0  0
 29 30  1  0  0  0
 30 31  2  0  0  0
 31 32  1  0  0  0
 32 33  2  0  0  0
 33 34  1  0  0  0
 34 35  2  0  0  0
 35 36  1  0  0  0
 36 37  2  0  0  0
  9 10  1  0  0  0
 10 11  2  0  0  0
 11 12  1  0  0  0
 12 13  2  0  0  0
 13  4  1  0  0  0
 13  8  1  0  0  0
 26 20  1  0  0  0
 37 28  1  0  0  0
 37 32  1  0  0  0
  4 14  1  0  0  0
M  CHG 1   4   1
M  END
> <minimizedAffinity>
-7.64878

> <CNNscore>
0.3774204254

> <CNNaffinity>
6.4913735390

> <CNN_VS>
2.4499769211

> <CNNaffinity_variance>
0.1161201149

$$$$



 37 41  0  0  0  0  0  0  0  0999 V2000
    6.6583   -0.6620   23.1176 N   0  0  0  0  0  0  0  0  0  0  0  0
    7.8303   -0.5013   22.1953 C   0  0  0  0  0  0  0  0  0  0  0  0
    7.7869    0.5208   21.0983 O   0  0  0  0  0  0  0  0  0  0  0  0
    3.1603    1.6094   20.0183 N   0  0  0  0  0  0  0  0  0  0  0  0
    3.8423    1.0222   18.8183 C   0  0  0  0  0  0  0  0  0  0  0  0
    5.0578    0.1608   18.9931 C   0  0  0  0  0  0  0  0  0  0  0  0
    5.5913   -0.1135   20.3679 C   0  0  0  0  0  0  0  0  0  0  0  0
    4.9093    0.4737   21.5679 C   0  0  0  0  0  0  0  0  0  0  0  0
    5.4428    0.1994   22.9428 C   0  0  0  0  0  0  0  0  0  0  0  0
    4.7608    0.7866   24.1428 C   0  0  0  0  0  0  0  0  0  0  0  0
    3.5453    1.6480   23.9680 C   0  0  0  0  0  0  0  0  0  0  0  0
    3.0118    1.9222   22.5933 C   0  0  0  0  0  0  0  0  0  0  0  0
    3.6938    1.3351   21.3931 C   0  0  0  0  0  0  0  0  0  0  0  0
    3.9581    1.0440   20.1330 H   0  0  0  0  0  0  0  0  0  0  0  0
    1.9448    2.4708   19.8436 C   0  0  0  0  0  0  0  0  0  0  0  0
    0.5768    1.8585   19.9030 O   0  0  0  0  0  0  0  0  0  0  0  0
    0.9015    4.8457   19.6981 C   0  0  0  0  0  0  0  0  0  0  0  0
    2.0973    3.9445   19.6093 C   0  0  0  0  0  0  0  0  0  0  0  0
    6.7018   -1.6841   24.2145 C   0  0  0  0  0  0  0  0  0  0  0  0
    6.8035   -3.1422   23.8775 C   0  0  0  0  0  0  0  0  0  0  0  0
    7.6482   -4.0499   24.7216 C   0  0  0  0  0  0  0  0  0  0  0  0
    7.7500   -5.5080   24.3846 C   0  0  0  0  0  0  0  0  0  0  0  0
    7.0069   -6.0584   23.2034 C   0  0  0  0  0  0  0  0  0  0  0  0
    6.1623   -5.1507   22.3594 C   0  0  0  0  0  0  0  0  0  0  0  0
    5.4192   -5.7010   21.1782 Cl  0  0  0  0  0  0  0  0  0  0  0  0
    6.0605   -3.6926   22.6964 C   0  0  0  0  0  0  0  0  0  0  0  0
    9.0458   -1.3627   22.3701 C   0  0  0  0  0  0  0  0  0  0  0  0
   10.4064   -0.7349   22.4390 C   0  0  0  0  0  0  0  0  0  0  0  0
   11.6326   -1.5812   22.2653 C   0  0  0  0  0  0  0  0  0  0  0  0
   12.9931   -0.9535   22.3343 N   0  0  0  0  0  0  0  0  0  0  0  0
   13.1275    0.5207   22.5770 C   0  0  0  0  0  0  0  0  0  0  0  0
   11.9013    1.3670   22.7507 C   0  0  0  0  0  0  0  0  0  0  0  0
   12.0356    2.8411   22.9934 C   0  0  0  0  0  0  0  0  0  0  0  0
   10.8094    3.6875   23.1671 C   0  0  0  0  0  0  0  0  0  0  0  0
    9.4489    3.0597   23.0981 C   0  0  0  0  0  0  0  0  0  0  0  0
    9.3145    1.5855   22.8554 C   0  0  0  0  0  0  0  0  0  0  0  0
   10.5407    0.7392   22.6817 C   0  0  0  0  0  0  0  0  0  0  0  0
 17 18  1  0  0  0
 18 15  1  0  0  0
 15 16  2  0  0  0
  4 15  1  0  0  0
  4  5  1  0  0  0
  5  6  1  0  0  0
  6  7  1  0  0  0
  7  8  1  0  0  0
  8  9  2  0  0  0
  9  1  1  0  0  0
  1 19  1  0  0  0
 19 20  1  0  0  0
 20 21  2  0  0  0
 21 22  1  0  0  0
 22 23  2  0  0  0
 23 24  1  0  0  0
 24 25  1  0  0  0
 24 26  2  0  0  0
  1  2  1  0  0  0
  2  3  2  0  0  0
  2 27  1  0  0  0
 27 28  1  0  0  0
 28 29  2  0  0  0
 29 30  1  0  0  0
 30 31  2  0  0  0
 31 32  1  0  0  0
 32 33  2  0  0  0
 33 34  1  0  0  0
 34 35  2  0  0  0
 35 36  1  0  0  0
 36 37  2  0  0  0
  9 10  1  0  0  0
 10 11  2  0  0  0
 11 12  1  0  0  0
 12 13  2  0  0  0
 13  4  1  0  0  0
 13  8  1  0  0  0
 26 20  1  0  0  0
 37 28  1  0  0  0
 37 32  1  0  0  0
  4 14  1  0  0  0
M  CHG 1   4   1
M  END
> <minimizedAffinity>
-7.38359

> <CNNscore>
0.3738950193

> <CNNaffinity>
6.6894683838

> <CNN_VS>
2.5011589527

> <CNNaffinity_variance>
0.1077051163

$$$$



 37 41  0  0  0  0  0  0  0  0999 V2000
    6.3087   -1.6326   22.5337 N   0  0  0  0  0  0  0  0  0  0  0  0
    7.6531   -1.3310   23.1269 C   0  0  0  0  0  0  0  0  0  0  0  0
    7.9462    0.0390   23.6627 O   0  0  0  0  0  0  0  0  0  0  0  0
    3.5401    1.8143   19.8036 N   0  0  0  0  0  0  0  0  0  0  0  0
    4.2582    1.4008   18.5533 C   0  0  0  0  0  0  0  0  0  0  0  0
    5.3094    0.3323   18.6107 C   0  0  0  0  0  0  0  0  0  0  0  0
    5.6425   -0.3226   19.9183 C   0  0  0  0  0  0  0  0  0  0  0  0
    4.9244    0.0908   21.1686 C   0  0  0  0  0  0  0  0  0  0  0  0
    5.2575   -0.5641   22.4764 C   0  0  0  0  0  0  0  0  0  0  0  0
    4.5394   -0.1506   23.7267 C   0  0  0  0  0  0  0  0  0  0  0  0
    3.4882    0.9178   23.6693 C   0  0  0  0  0  0  0  0  0  0  0  0
    3.1551    1.5728   22.3617 C   0  0  0  0  0  0  0  0  0  0  0  0
    3.8732    1.1593   21.1113 C   0  0  0  0  0  0  0  0  0  0  0  0
    4.2300    1.1130   19.8413 H   0  0  0  0  0  0  0  0  0  0  0  0
    2.4888    2.8828   19.7463 C   0  0  0  0  0  0  0  0  0  0  0  0
    1.2595    2.6814   18.9107 O   0  0  0  0  0  0  0  0  0  0  0  0
    1.5883    5.1950   20.5161 C   0  0  0  0  0  0  0  0  0  0  0  0
    2.6669    4.1526   20.5245 C   0  0  0  0  0  0  0  0  0  0  0  0
    6.0157   -3.0026   21.9979 C   0  0  0  0  0  0  0  0  0  0  0  0
    5.9748   -4.1788   22.9279 C   0  0  0  0  0  0  0  0  0  0  0  0
    6.5483   -5.4961   22.4968 C   0  0  0  0  0  0  0  0  0  0  0  0
    6.5074   -6.6723   23.4268 C   0  0  0  0  0  0  0  0  0  0  0  0
    5.8931   -6.5311   24.7880 C   0  0  0  0  0  0  0  0  0  0  0  0
    5.3197   -5.2138   25.2191 C   0  0  0  0  0  0  0  0  0  0  0  0
    4.7054   -5.0726   26.5803 Cl  0  0  0  0  0  0  0  0  0  0  0  0
    5.3606   -4.0377   24.2891 C   0  0  0  0  0  0  0  0  0  0  0  0
    8.7043   -2.3995   23.1842 C   0  0  0  0  0  0  0  0  0  0  0  0
   10.1563   -2.0266   23.1339 C   0  0  0  0  0  0  0  0  0  0  0  0
   10.7024   -1.2969   21.9426 C   0  0  0  0  0  0  0  0  0  0  0  0
   12.1544   -0.9240   21.8923 N   0  0  0  0  0  0  0  0  0  0  0  0
   13.0604   -1.2807   23.0334 C   0  0  0  0  0  0  0  0  0  0  0  0
   12.5143   -2.0103   24.2248 C   0  0  0  0  0  0  0  0  0  0  0  0
   13.4201   -2.3670   25.3659 C   0  0  0  0  0  0  0  0  0  0  0  0
   12.8740   -3.0966   26.5572 C   0  0  0  0  0  0  0  0  0  0  0  0
   11.4220   -3.4695   26.6075 C   0  0  0  0  0  0  0  0  0  0  0  0
   10.5161   -3.1129   25.4664 C   0  0  0  0  0  0  0  0  0  0  0  0
   11.0622   -2.3832   24.2750 C   0  0  0  0  0  0  0  0  0  0  0  0
 17 18  1  0  0  0
 18 15  1  0  0  0
 15 16  2  0  0  0
  4 15  1  0  0  0
  4  5  1  0  0  0
  5  6  1  0  0  0
  6  7  1  0  0  0
  7  8  1  0  0  0
  8  9  2  0  0  0
  9  1  1  0  0  0
  1 19  1  0  0  0
 19 20  1  0  0  0
 20 21  2  0  0  0
 21 22  1  0  0  0
 22 23  2  0  0  0
 23 24  1  0  0  0
 24 25  1  0  0  0
 24 26  2  0  0  0
  1  2  1  0  0  0
  2  3  2  0  0  0
  2 27  1  0  0  0
 27 28  1  0  0  0
 28 29  2  0  0  0
 29 30  1  0  0  0
 30 31  2  0  0  0
 31 32  1  0  0  0
 32 33  2  0  0  0
 33 34  1  0  0  0
 34 35  2  0  0  0
 35 36  1  0  0  0
 36 37  2  0  0  0
  9 10  1  0  0  0
 10 11  2  0  0  0
 11 12  1  0  0  0
 12 13  2  0  0  0
 13  4  1  0  0  0
 13  8  1  0  0  0
 26 20  1  0  0  0
 37 28  1  0  0  0
 37 32  1  0  0  0
  4 14  1  0  0  0
M  CHG 1   4   1
M  END
> <minimizedAffinity>
-8.46031

> <CNNscore>
0.3512621820

> <CNNaffinity>
6.5230855942

> <CNN_VS>
2.2913131714

> <CNNaffinity_variance>
0.2035293579

$$$$
