


 33 34  0  0  0  0  0  0  0  0999 V2000
   -8.1448   -1.1956  -23.3439 C   0  0  0  0  0  0  0  0  0  0  0  0
   -8.8516   -2.4841  -23.6439 C   0  0  0  0  0  0  0  0  0  0  0  0
  -10.3119   -2.4763  -23.9868 C   0  0  0  0  0  0  0  0  0  0  0  0
  -11.0187   -3.7649  -24.2868 Cl  0  0  0  0  0  0  0  0  0  0  0  0
  -11.0653   -1.1800  -24.0297 C   0  0  0  0  0  0  0  0  0  0  0  0
  -10.3585    0.1085  -23.7296 C   0  0  0  0  0  0  0  0  0  0  0  0
   -8.8982    0.1007  -23.3868 C   0  0  0  0  0  0  0  0  0  0  0  0
  -11.1119    1.4049  -23.7725 C   0  0  0  0  0  0  0  0  0  0  0  0
  -10.4328    2.6513  -24.2575 C   0  0  0  0  0  0  0  0  0  0  0  0
  -11.1863    3.9477  -24.3004 C   0  0  0  0  0  0  0  0  0  0  0  0
  -12.6187    3.9976  -23.8582 C   0  0  0  0  0  0  0  0  0  0  0  0
  -13.2978    2.7511  -23.3732 C   0  0  0  0  0  0  0  0  0  0  0  0
  -12.5444    1.4548  -23.3303 C   0  0  0  0  0  0  0  0  0  0  0  0
  -13.3722    5.2940  -23.9011 S   0  0  0  0  0  0  0  0  0  0  0  0
  -14.1256    6.5903  -23.9439 N   0  0  0  0  0  0  0  0  0  0  0  0
  -14.3086    4.7845  -22.8459 O   0  0  0  0  0  0  0  0  0  0  0  0
  -12.4357    5.8034  -24.9562 O   0  0  0  0  0  0  0  0  0  0  0  0
  -14.9332    6.7310  -23.3370 H   0  0  0  0  0  0  0  0  0  0  0  0
  -13.8302    7.3310  -24.5799 H   0  0  0  0  0  0  0  0  0  0  0  0
   -5.6872   -0.6141  -23.9539 C   0  0  0  0  0  0  0  0  0  0  0  0
   -6.6845   -1.2034  -23.0010 C   0  0  0  0  0  0  0  0  0  0  0  0
   -6.2216   -1.8005  -21.7052 N   0  0  0  0  0  0  0  0  0  0  0  0
   -6.7528   -1.2744  -20.4048 C   0  0  0  0  0  0  0  0  0  0  0  0
   -7.7470   -0.1513  -20.4002 O   0  0  0  0  0  0  0  0  0  0  0  0
   -5.5690   -2.5377  -21.7082 H   0  0  0  0  0  0  0  0  0  0  0  0
   -6.2898   -1.8716  -19.1090 C   0  0  0  0  0  0  0  0  0  0  0  0
   -5.5685   -1.0205  -18.1063 O   0  0  0  0  0  0  0  0  0  0  0  0
   -4.8168    0.1964  -18.5580 S   0  0  0  0  0  0  0  0  0  0  0  0
   -4.0650    1.4133  -19.0098 N   0  0  0  0  0  0  0  0  0  0  0  0
   -4.2789   -0.5707  -19.7294 O   0  0  0  0  0  0  0  0  0  0  0  0
   -5.3546    0.9634  -17.3866 O   0  0  0  0  0  0  0  0  0  0  0  0
   -4.1261    2.2788  -18.4735 H   0  0  0  0  0  0  0  0  0  0  0  0
   -3.4927    1.3753  -19.8532 H   0  0  0  0  0  0  0  0  0  0  0  0
 21 20  1  0  0  0
 21 22  1  0  0  0
 22 23  1  0  0  0
 23 24  2  0  0  0
 23 26  1  0  0  0
 26 27  1  0  0  0
 27 28  1  0  0  0
 28 29  1  0  0  0
 28 30  2  0  0  0
 28 31  2  0  0  0
 21  1  1  0  0  0
  1  2  2  0  0  0
  2  3  1  0  0  0
  3  4  1  0  0  0
  3  5  2  0  0  0
  5  6  1  0  0  0
  6  8  1  0  0  0
  8  9  2  0  0  0
  9 10  1  0  0  0
 10 11  2  0  0  0
 11 14  1  0  0  0
 14 15  1  0  0  0
 14 16  2  0  0  0
 14 17  2  0  0  0
 11 12  1  0  0  0
 12 13  2  0  0  0
  6  7  2  0  0  0
  7  1  1  0  0  0
 13  8  1  0  0  0
 22 25  1  0  0  0
 29 32  1  0  0  0
 29 33  1  0  0  0
 15 18  1  0  0  0
 15 19  1  0  0  0
M  END
> <minimizedAffinity>
-8.08203

> <CNNscore>
0.8645479083

> <CNNaffinity>
6.2783122063

> <CNN_VS>
5.4279017448

> <CNNaffinity_variance>
0.2837128937

$$$$



 33 34  0  0  0  0  0  0  0  0999 V2000
   -8.2788   -1.3528  -23.2632 C   0  0  0  0  0  0  0  0  0  0  0  0
   -8.9878   -2.6310  -23.6000 C   0  0  0  0  0  0  0  0  0  0  0  0
  -10.4373   -2.6057  -23.9851 C   0  0  0  0  0  0  0  0  0  0  0  0
  -11.1463   -3.8840  -24.3219 Cl  0  0  0  0  0  0  0  0  0  0  0  0
  -11.1779   -1.3022  -24.0333 C   0  0  0  0  0  0  0  0  0  0  0  0
  -10.4689   -0.0240  -23.6965 C   0  0  0  0  0  0  0  0  0  0  0  0
   -9.0194   -0.0492  -23.3115 C   0  0  0  0  0  0  0  0  0  0  0  0
  -11.2095    1.2797  -23.7447 C   0  0  0  0  0  0  0  0  0  0  0  0
  -12.6472    1.3416  -23.3216 C   0  0  0  0  0  0  0  0  0  0  0  0
  -13.3878    2.6452  -23.3699 C   0  0  0  0  0  0  0  0  0  0  0  0
  -12.6905    3.8868  -23.8412 C   0  0  0  0  0  0  0  0  0  0  0  0
  -11.2527    3.8249  -24.2643 C   0  0  0  0  0  0  0  0  0  0  0  0
  -10.5123    2.5213  -24.2161 C   0  0  0  0  0  0  0  0  0  0  0  0
  -13.4310    5.1904  -23.8895 S   0  0  0  0  0  0  0  0  0  0  0  0
  -14.1715    6.4939  -23.9377 N   0  0  0  0  0  0  0  0  0  0  0  0
  -12.7656    5.5201  -25.1927 O   0  0  0  0  0  0  0  0  0  0  0  0
  -14.0965    4.8606  -22.5863 O   0  0  0  0  0  0  0  0  0  0  0  0
  -14.0314    7.1313  -24.7216 H   0  0  0  0  0  0  0  0  0  0  0  0
  -14.8152    6.7429  -23.1866 H   0  0  0  0  0  0  0  0  0  0  0  0
   -5.7943   -0.8331  -23.8171 C   0  0  0  0  0  0  0  0  0  0  0  0
   -6.8293   -1.3780  -22.8782 C   0  0  0  0  0  0  0  0  0  0  0  0
   -6.4149   -1.9483  -21.5542 N   0  0  0  0  0  0  0  0  0  0  0  0
   -6.8661   -1.2947  -20.2817 C   0  0  0  0  0  0  0  0  0  0  0  0
   -7.7319   -0.0709  -20.3332 O   0  0  0  0  0  0  0  0  0  0  0  0
   -5.8466   -2.7515  -21.5204 H   0  0  0  0  0  0  0  0  0  0  0  0
   -6.4516   -1.8650  -18.9577 C   0  0  0  0  0  0  0  0  0  0  0  0
   -5.5029   -1.1059  -18.0780 O   0  0  0  0  0  0  0  0  0  0  0  0
   -4.8438    0.1418  -18.5867 S   0  0  0  0  0  0  0  0  0  0  0  0
   -4.1846    1.3895  -19.0954 N   0  0  0  0  0  0  0  0  0  0  0  0
   -4.3358   -0.6128  -19.7793 O   0  0  0  0  0  0  0  0  0  0  0  0
   -5.3518    0.8963  -17.3940 O   0  0  0  0  0  0  0  0  0  0  0  0
   -4.2596    2.2581  -18.5660 H   0  0  0  0  0  0  0  0  0  0  0  0
   -3.6613    1.3693  -19.9707 H   0  0  0  0  0  0  0  0  0  0  0  0
 21 20  1  0  0  0
 21 22  1  0  0  0
 22 23  1  0  0  0
 23 24  2  0  0  0
 23 26  1  0  0  0
 26 27  1  0  0  0
 27 28  1  0  0  0
 28 29  1  0  0  0
 28 30  2  0  0  0
 28 31  2  0  0  0
 21  1  1  0  0  0
  1  2  2  0  0  0
  2  3  1  0  0  0
  3  4  1  0  0  0
  3  5  2  0  0  0
  5  6  1  0  0  0
  6  8  1  0  0  0
  8  9  2  0  0  0
  9 10  1  0  0  0
 10 11  2  0  0  0
 11 14  1  0  0  0
 14 15  1  0  0  0
 14 16  2  0  0  0
 14 17  2  0  0  0
 11 12  1  0  0  0
 12 13  2  0  0  0
  6  7  2  0  0  0
  7  1  1  0  0  0
 13  8  1  0  0  0
 22 25  1  0  0  0
 29 32  1  0  0  0
 29 33  1  0  0  0
 15 18  1  0  0  0
 15 19  1  0  0  0
M  END
> <minimizedAffinity>
-8.11980

> <CNNscore>
0.8613235950

> <CNNaffinity>
6.2816214561

> <CNN_VS>
5.4105086327

> <CNNaffinity_variance>
0.2895782888

$$$$



 33 34  0  0  0  0  0  0  0  0999 V2000
   -8.1645   -3.1823  -23.1852 C   0  0  0  0  0  0  0  0  0  0  0  0
   -8.6643   -4.3041  -24.0463 C   0  0  0  0  0  0  0  0  0  0  0  0
   -9.9454   -4.1491  -24.8111 C   0  0  0  0  0  0  0  0  0  0  0  0
  -10.4452   -5.2709  -25.6723 Cl  0  0  0  0  0  0  0  0  0  0  0  0
  -10.7266   -2.8722  -24.7147 C   0  0  0  0  0  0  0  0  0  0  0  0
  -10.2267   -1.7504  -23.8535 C   0  0  0  0  0  0  0  0  0  0  0  0
   -8.9457   -1.9055  -23.0887 C   0  0  0  0  0  0  0  0  0  0  0  0
  -11.0080   -0.4735  -23.7571 C   0  0  0  0  0  0  0  0  0  0  0  0
  -12.5064   -0.5133  -23.7018 C   0  0  0  0  0  0  0  0  0  0  0  0
  -13.2876    0.7636  -23.6053 C   0  0  0  0  0  0  0  0  0  0  0  0
  -12.5703    2.0803  -23.5642 C   0  0  0  0  0  0  0  0  0  0  0  0
  -11.0718    2.1201  -23.6194 C   0  0  0  0  0  0  0  0  0  0  0  0
  -10.2907    0.8433  -23.7159 C   0  0  0  0  0  0  0  0  0  0  0  0
  -13.3514    3.3572  -23.4677 S   0  0  0  0  0  0  0  0  0  0  0  0
  -14.1326    4.6341  -23.3713 N   0  0  0  0  0  0  0  0  0  0  0  0
  -13.6724    3.0526  -22.0345 O   0  0  0  0  0  0  0  0  0  0  0  0
  -13.0304    3.6618  -24.9009 O   0  0  0  0  0  0  0  0  0  0  0  0
  -14.5872    4.8889  -22.4945 H   0  0  0  0  0  0  0  0  0  0  0  0
  -14.2091    5.2477  -24.1825 H   0  0  0  0  0  0  0  0  0  0  0  0
   -6.1180   -4.6253  -22.4926 C   0  0  0  0  0  0  0  0  0  0  0  0
   -6.8834   -3.3374  -22.4204 C   0  0  0  0  0  0  0  0  0  0  0  0
   -6.3678   -2.2044  -21.5834 N   0  0  0  0  0  0  0  0  0  0  0  0
   -5.5703   -2.4891  -20.3453 C   0  0  0  0  0  0  0  0  0  0  0  0
   -5.2884   -3.9067  -19.9442 O   0  0  0  0  0  0  0  0  0  0  0  0
   -6.5528   -1.2740  -21.8467 H   0  0  0  0  0  0  0  0  0  0  0  0
   -5.0546   -1.3561  -19.5083 C   0  0  0  0  0  0  0  0  0  0  0  0
   -4.9262    0.0160  -20.1007 O   0  0  0  0  0  0  0  0  0  0  0  0
   -3.9034    0.9723  -19.5629 S   0  0  0  0  0  0  0  0  0  0  0  0
   -2.8806    1.9288  -19.0251 N   0  0  0  0  0  0  0  0  0  0  0  0
   -4.7064    1.1238  -18.3051 O   0  0  0  0  0  0  0  0  0  0  0  0
   -3.1005    0.8209  -20.8208 O   0  0  0  0  0  0  0  0  0  0  0  0
   -2.0600    2.1648  -19.5830 H   0  0  0  0  0  0  0  0  0  0  0  0
   -3.0058    2.3431  -18.1015 H   0  0  0  0  0  0  0  0  0  0  0  0
 21 20  1  0  0  0
 21 22  1  0  0  0
 22 23  1  0  0  0
 23 24  2  0  0  0
 23 26  1  0  0  0
 26 27  1  0  0  0
 27 28  1  0  0  0
 28 29  1  0  0  0
 28 30  2  0  0  0
 28 31  2  0  0  0
 21  1  1  0  0  0
  1  2  2  0  0  0
  2  3  1  0  0  0
  3  4  1  0  0  0
  3  5  2  0  0  0
  5  6  1  0  0  0
  6  8  1  0  0  0
  8  9  2  0  0  0
  9 10  1  0  0  0
 10 11  2  0  0  0
 11 14  1  0  0  0
 14 15  1  0  0  0
 14 16  2  0  0  0
 14 17  2  0  0  0
 11 12  1  0  0  0
 12 13  2  0  0  0
  6  7  2  0  0  0
  7  1  1  0  0  0
 13  8  1  0  0  0
 22 25  1  0  0  0
 29 32  1  0  0  0
 29 33  1  0  0  0
 15 18  1  0  0  0
 15 19  1  0  0  0
M  END
> <minimizedAffinity>
-8.12818

> <CNNscore>
0.8457093835

> <CNNaffinity>
6.1723589897

> <CNN_VS>
5.2200217247

> <CNNaffinity_variance>
0.1446695775

$$$$



 33 34  0  0  0  0  0  0  0  0999 V2000
   -8.1445   -3.0631  -23.1981 C   0  0  0  0  0  0  0  0  0  0  0  0
   -8.6396   -4.1976  -24.0453 C   0  0  0  0  0  0  0  0  0  0  0  0
   -9.9259   -4.0607  -24.8047 C   0  0  0  0  0  0  0  0  0  0  0  0
  -10.4211   -5.1952  -25.6519 Cl  0  0  0  0  0  0  0  0  0  0  0  0
  -10.7171   -2.7894  -24.7168 C   0  0  0  0  0  0  0  0  0  0  0  0
  -10.2219   -1.6549  -23.8696 C   0  0  0  0  0  0  0  0  0  0  0  0
   -8.9356   -1.7918  -23.1102 C   0  0  0  0  0  0  0  0  0  0  0  0
  -11.0131   -0.3835  -23.7818 C   0  0  0  0  0  0  0  0  0  0  0  0
  -10.3127    0.9414  -23.8435 C   0  0  0  0  0  0  0  0  0  0  0  0
  -11.1039    2.2129  -23.7556 C   0  0  0  0  0  0  0  0  0  0  0  0
  -12.5955    2.1592  -23.6061 C   0  0  0  0  0  0  0  0  0  0  0  0
  -13.2958    0.8341  -23.5443 C   0  0  0  0  0  0  0  0  0  0  0  0
  -12.5047   -0.4372  -23.6322 C   0  0  0  0  0  0  0  0  0  0  0  0
  -13.3866    3.4305  -23.5182 S   0  0  0  0  0  0  0  0  0  0  0  0
  -14.1778    4.7018  -23.4304 N   0  0  0  0  0  0  0  0  0  0  0  0
  -13.7887    3.0833  -22.1155 O   0  0  0  0  0  0  0  0  0  0  0  0
  -12.9845    3.7777  -24.9209 O   0  0  0  0  0  0  0  0  0  0  0  0
  -14.6836    4.9296  -22.5744 H   0  0  0  0  0  0  0  0  0  0  0  0
  -14.2100    5.3385  -24.2266 H   0  0  0  0  0  0  0  0  0  0  0  0
   -6.1679   -4.5297  -22.3661 C   0  0  0  0  0  0  0  0  0  0  0  0
   -6.8581   -3.2000  -22.4387 C   0  0  0  0  0  0  0  0  0  0  0  0
   -6.2621   -2.0071  -21.7519 N   0  0  0  0  0  0  0  0  0  0  0  0
   -5.5144   -2.1797  -20.4630 C   0  0  0  0  0  0  0  0  0  0  0  0
   -5.3628   -3.5451  -19.8609 O   0  0  0  0  0  0  0  0  0  0  0  0
   -6.3616   -1.1109  -22.1470 H   0  0  0  0  0  0  0  0  0  0  0  0
   -4.9183   -0.9868  -19.7762 C   0  0  0  0  0  0  0  0  0  0  0  0
   -4.1288    0.0157  -20.5646 O   0  0  0  0  0  0  0  0  0  0  0  0
   -3.4001    1.1200  -19.8578 S   0  0  0  0  0  0  0  0  0  0  0  0
   -2.6714    2.2243  -19.1510 N   0  0  0  0  0  0  0  0  0  0  0  0
   -2.3007    1.0460  -20.8756 O   0  0  0  0  0  0  0  0  0  0  0  0
   -4.4995    1.1940  -18.8401 O   0  0  0  0  0  0  0  0  0  0  0  0
   -3.0711    2.6434  -18.3114 H   0  0  0  0  0  0  0  0  0  0  0  0
   -1.7763    2.5562  -19.5101 H   0  0  0  0  0  0  0  0  0  0  0  0
 21 20  1  0  0  0
 21 22  1  0  0  0
 22 23  1  0  0  0
 23 24  2  0  0  0
 23 26  1  0  0  0
 26 27  1  0  0  0
 27 28  1  0  0  0
 28 29  1  0  0  0
 28 30  2  0  0  0
 28 31  2  0  0  0
 21  1  1  0  0  0
  1  2  2  0  0  0
  2  3  1  0  0  0
  3  4  1  0  0  0
  3  5  2  0  0  0
  5  6  1  0  0  0
  6  8  1  0  0  0
  8  9  2  0  0  0
  9 10  1  0  0  0
 10 11  2  0  0  0
 11 14  1  0  0  0
 14 15  1  0  0  0
 14 16  2  0  0  0
 14 17  2  0  0  0
 11 12  1  0  0  0
 12 13  2  0  0  0
  6  7  2  0  0  0
  7  1  1  0  0  0
 13  8  1  0  0  0
 22 25  1  0  0  0
 29 32  1  0  0  0
 29 33  1  0  0  0
 15 18  1  0  0  0
 15 19  1  0  0  0
M  END
> <minimizedAffinity>
-8.10788

> <CNNscore>
0.7402295470

> <CNNaffinity>
6.0163788795

> <CNN_VS>
4.4535012245

> <CNNaffinity_variance>
0.1326711476

$$$$



 33 34  0  0  0  0  0  0  0  0999 V2000
   -9.8598   -1.9934  -22.9727 C   0  0  0  0  0  0  0  0  0  0  0  0
  -11.0475   -2.7996  -22.5374 C   0  0  0  0  0  0  0  0  0  0  0  0
  -12.4182   -2.1910  -22.5654 C   0  0  0  0  0  0  0  0  0  0  0  0
  -13.6058   -2.9973  -22.1301 Cl  0  0  0  0  0  0  0  0  0  0  0  0
  -12.6012   -0.7761  -23.0287 C   0  0  0  0  0  0  0  0  0  0  0  0
  -11.4136    0.0301  -23.4640 C   0  0  0  0  0  0  0  0  0  0  0  0
  -10.0429   -0.5785  -23.4360 C   0  0  0  0  0  0  0  0  0  0  0  0
  -11.5966    1.4450  -23.9272 C   0  0  0  0  0  0  0  0  0  0  0  0
  -12.9410    2.1015  -23.8196 C   0  0  0  0  0  0  0  0  0  0  0  0
  -13.1240    3.5164  -24.2829 C   0  0  0  0  0  0  0  0  0  0  0  0
  -11.9626    4.2748  -24.8538 C   0  0  0  0  0  0  0  0  0  0  0  0
  -10.6181    3.6183  -24.9615 C   0  0  0  0  0  0  0  0  0  0  0  0
  -10.4352    2.2034  -24.4982 C   0  0  0  0  0  0  0  0  0  0  0  0
  -12.1455    5.6897  -25.3171 S   0  0  0  0  0  0  0  0  0  0  0  0
  -12.3285    7.1045  -25.7804 N   0  0  0  0  0  0  0  0  0  0  0  0
  -10.8094    6.0516  -24.7393 O   0  0  0  0  0  0  0  0  0  0  0  0
  -13.4816    5.3277  -25.8948 O   0  0  0  0  0  0  0  0  0  0  0  0
  -11.6038    7.7987  -25.5976 H   0  0  0  0  0  0  0  0  0  0  0  0
  -13.1775    7.3724  -26.2781 H   0  0  0  0  0  0  0  0  0  0  0  0
   -8.3190   -4.0771  -23.1572 C   0  0  0  0  0  0  0  0  0  0  0  0
   -8.4891   -2.6020  -22.9447 C   0  0  0  0  0  0  0  0  0  0  0  0
   -7.2886   -1.7356  -22.7042 N   0  0  0  0  0  0  0  0  0  0  0  0
   -7.0964   -1.0732  -21.3722 C   0  0  0  0  0  0  0  0  0  0  0  0
   -8.1048   -1.2771  -20.2807 O   0  0  0  0  0  0  0  0  0  0  0  0
   -6.6267   -1.6017  -23.4206 H   0  0  0  0  0  0  0  0  0  0  0  0
   -5.8958   -0.2067  -21.1317 C   0  0  0  0  0  0  0  0  0  0  0  0
   -4.9214   -0.5595  -20.0472 O   0  0  0  0  0  0  0  0  0  0  0  0
   -4.9639    0.1668  -18.7355 S   0  0  0  0  0  0  0  0  0  0  0  0
   -5.0064    0.8931  -17.4237 N   0  0  0  0  0  0  0  0  0  0  0  0
   -4.3601    1.3762  -19.3855 O   0  0  0  0  0  0  0  0  0  0  0  0
   -5.5677   -1.0427  -18.0855 O   0  0  0  0  0  0  0  0  0  0  0  0
   -5.3764    0.4278  -16.5949 H   0  0  0  0  0  0  0  0  0  0  0  0
   -4.6652    1.8523  -17.3605 H   0  0  0  0  0  0  0  0  0  0  0  0
 21 20  1  0  0  0
 21 22  1  0  0  0
 22 23  1  0  0  0
 23 24  2  0  0  0
 23 26  1  0  0  0
 26 27  1  0  0  0
 27 28  1  0  0  0
 28 29  1  0  0  0
 28 30  2  0  0  0
 28 31  2  0  0  0
 21  1  1  0  0  0
  1  2  2  0  0  0
  2  3  1  0  0  0
  3  4  1  0  0  0
  3  5  2  0  0  0
  5  6  1  0  0  0
  6  8  1  0  0  0
  8  9  2  0  0  0
  9 10  1  0  0  0
 10 11  2  0  0  0
 11 14  1  0  0  0
 14 15  1  0  0  0
 14 16  2  0  0  0
 14 17  2  0  0  0
 11 12  1  0  0  0
 12 13  2  0  0  0
  6  7  2  0  0  0
  7  1  1  0  0  0
 13  8  1  0  0  0
 22 25  1  0  0  0
 29 32  1  0  0  0
 29 33  1  0  0  0
 15 18  1  0  0  0
 15 19  1  0  0  0
M  END
> <minimizedAffinity>
-7.52717

> <CNNscore>
0.7242765427

> <CNNaffinity>
6.1584100723

> <CNN_VS>
4.4603919983

> <CNNaffinity_variance>
0.2726088166

$$$$



 33 34  0  0  0  0  0  0  0  0999 V2000
   -8.1734   -3.4142  -23.2534 C   0  0  0  0  0  0  0  0  0  0  0  0
   -8.6843   -4.4596  -24.1999 C   0  0  0  0  0  0  0  0  0  0  0  0
   -9.9542   -4.2244  -24.9629 C   0  0  0  0  0  0  0  0  0  0  0  0
  -10.4651   -5.2700  -25.9094 Cl  0  0  0  0  0  0  0  0  0  0  0  0
  -10.7132   -2.9437  -24.7793 C   0  0  0  0  0  0  0  0  0  0  0  0
  -10.2023   -1.8983  -23.8328 C   0  0  0  0  0  0  0  0  0  0  0  0
   -8.9324   -2.1335  -23.0698 C   0  0  0  0  0  0  0  0  0  0  0  0
  -10.9613   -0.6175  -23.6492 C   0  0  0  0  0  0  0  0  0  0  0  0
  -12.4610   -0.6235  -23.6791 C   0  0  0  0  0  0  0  0  0  0  0  0
  -13.2200    0.6572  -23.4955 C   0  0  0  0  0  0  0  0  0  0  0  0
  -12.4792    1.9440  -23.2819 C   0  0  0  0  0  0  0  0  0  0  0  0
  -10.9795    1.9499  -23.2520 C   0  0  0  0  0  0  0  0  0  0  0  0
  -10.2206    0.6692  -23.4356 C   0  0  0  0  0  0  0  0  0  0  0  0
  -13.2381    3.2247  -23.0983 S   0  0  0  0  0  0  0  0  0  0  0  0
  -13.9970    4.5054  -22.9147 N   0  0  0  0  0  0  0  0  0  0  0  0
  -13.0191    3.1421  -21.6167 O   0  0  0  0  0  0  0  0  0  0  0  0
  -13.4571    3.3073  -24.5799 O   0  0  0  0  0  0  0  0  0  0  0  0
  -14.1261    4.8922  -21.9797 H   0  0  0  0  0  0  0  0  0  0  0  0
  -14.3840    4.9895  -23.7248 H   0  0  0  0  0  0  0  0  0  0  0  0
   -6.1492   -4.9337  -22.6675 C   0  0  0  0  0  0  0  0  0  0  0  0
   -6.9036   -3.6494  -22.4905 C   0  0  0  0  0  0  0  0  0  0  0  0
   -6.3881   -2.6003  -21.5505 N   0  0  0  0  0  0  0  0  0  0  0  0
   -5.6132   -1.4316  -22.0830 C   0  0  0  0  0  0  0  0  0  0  0  0
   -5.3538   -1.3119  -23.5555 O   0  0  0  0  0  0  0  0  0  0  0  0
   -6.5583   -2.6789  -20.5840 H   0  0  0  0  0  0  0  0  0  0  0  0
   -5.0977   -0.3824  -21.1429 C   0  0  0  0  0  0  0  0  0  0  0  0
   -4.5553   -0.7785  -19.8016 O   0  0  0  0  0  0  0  0  0  0  0  0
   -4.9920   -0.0436  -18.5692 S   0  0  0  0  0  0  0  0  0  0  0  0
   -5.4288    0.6915  -17.3367 N   0  0  0  0  0  0  0  0  0  0  0  0
   -4.3124    1.1970  -19.0681 O   0  0  0  0  0  0  0  0  0  0  0  0
   -5.6717   -1.2841  -18.0702 O   0  0  0  0  0  0  0  0  0  0  0  0
   -5.9776    0.2108  -16.6238 H   0  0  0  0  0  0  0  0  0  0  0  0
   -5.1770    1.6720  -17.2115 H   0  0  0  0  0  0  0  0  0  0  0  0
 21 20  1  0  0  0
 21 22  1  0  0  0
 22 23  1  0  0  0
 23 24  2  0  0  0
 23 26  1  0  0  0
 26 27  1  0  0  0
 27 28  1  0  0  0
 28 29  1  0  0  0
 28 30  2  0  0  0
 28 31  2  0  0  0
 21  1  1  0  0  0
  1  2  2  0  0  0
  2  3  1  0  0  0
  3  4  1  0  0  0
  3  5  2  0  0  0
  5  6  1  0  0  0
  6  8  1  0  0  0
  8  9  2  0  0  0
  9 10  1  0  0  0
 10 11  2  0  0  0
 11 14  1  0  0  0
 14 15  1  0  0  0
 14 16  2  0  0  0
 14 17  2  0  0  0
 11 12  1  0  0  0
 12 13  2  0  0  0
  6  7  2  0  0  0
  7  1  1  0  0  0
 13  8  1  0  0  0
 22 25  1  0  0  0
 29 32  1  0  0  0
 29 33  1  0  0  0
 15 18  1  0  0  0
 15 19  1  0  0  0
M  END
> <minimizedAffinity>
-7.90138

> <CNNscore>
0.6724896431

> <CNNaffinity>
6.1795029640

> <CNN_VS>
4.1556515694

> <CNNaffinity_variance>
0.2268538475

$$$$



 33 34  0  0  0  0  0  0  0  0999 V2000
   -8.6809   -1.3883  -22.5877 C   0  0  0  0  0  0  0  0  0  0  0  0
   -9.3424   -2.6269  -23.1152 C   0  0  0  0  0  0  0  0  0  0  0  0
  -10.6840   -2.5356  -23.7799 C   0  0  0  0  0  0  0  0  0  0  0  0
  -11.3454   -3.7743  -24.3074 Cl  0  0  0  0  0  0  0  0  0  0  0  0
  -11.3642   -1.2058  -23.9170 C   0  0  0  0  0  0  0  0  0  0  0  0
  -10.7027    0.0328  -23.3894 C   0  0  0  0  0  0  0  0  0  0  0  0
   -9.3611   -0.0584  -22.7248 C   0  0  0  0  0  0  0  0  0  0  0  0
  -11.3829    1.3627  -23.5265 C   0  0  0  0  0  0  0  0  0  0  0  0
  -10.5858    2.5781  -23.8971 C   0  0  0  0  0  0  0  0  0  0  0  0
  -11.2660    3.9081  -24.0342 C   0  0  0  0  0  0  0  0  0  0  0  0
  -12.7433    4.0225  -23.8007 C   0  0  0  0  0  0  0  0  0  0  0  0
  -13.5404    2.8070  -23.4301 C   0  0  0  0  0  0  0  0  0  0  0  0
  -12.8602    1.4772  -23.2930 C   0  0  0  0  0  0  0  0  0  0  0  0
  -13.4235    5.3523  -23.9378 S   0  0  0  0  0  0  0  0  0  0  0  0
  -14.1037    6.6822  -24.0748 N   0  0  0  0  0  0  0  0  0  0  0  0
  -12.5813    5.6591  -25.1405 O   0  0  0  0  0  0  0  0  0  0  0  0
  -14.2656    5.0456  -22.7350 O   0  0  0  0  0  0  0  0  0  0  0  0
  -13.8390    7.3150  -24.8297 H   0  0  0  0  0  0  0  0  0  0  0  0
  -14.8309    6.9537  -23.4131 H   0  0  0  0  0  0  0  0  0  0  0  0
   -6.4938   -2.7050  -22.1053 C   0  0  0  0  0  0  0  0  0  0  0  0
   -7.3393   -1.4795  -21.9231 C   0  0  0  0  0  0  0  0  0  0  0  0
   -6.8431   -0.3452  -21.0763 N   0  0  0  0  0  0  0  0  0  0  0  0
   -5.7502    0.5477  -21.5843 C   0  0  0  0  0  0  0  0  0  0  0  0
   -5.1534    0.3064  -22.9391 O   0  0  0  0  0  0  0  0  0  0  0  0
   -7.2348   -0.1868  -20.1871 H   0  0  0  0  0  0  0  0  0  0  0  0
   -5.2540    1.6821  -20.7374 C   0  0  0  0  0  0  0  0  0  0  0  0
   -4.5254    1.3993  -19.4571 O   0  0  0  0  0  0  0  0  0  0  0  0
   -4.8553    0.1710  -18.6619 S   0  0  0  0  0  0  0  0  0  0  0  0
   -5.1853   -1.0575  -17.8667 N   0  0  0  0  0  0  0  0  0  0  0  0
   -4.3168   -0.6889  -19.7667 O   0  0  0  0  0  0  0  0  0  0  0  0
   -5.3939    1.0308  -17.5571 O   0  0  0  0  0  0  0  0  0  0  0  0
   -5.6147   -0.9687  -16.9458 H   0  0  0  0  0  0  0  0  0  0  0  0
   -4.9804   -1.9815  -18.2470 H   0  0  0  0  0  0  0  0  0  0  0  0
 21 20  1  0  0  0
 21 22  1  0  0  0
 22 23  1  0  0  0
 23 24  2  0  0  0
 23 26  1  0  0  0
 26 27  1  0  0  0
 27 28  1  0  0  0
 28 29  1  0  0  0
 28 30  2  0  0  0
 28 31  2  0  0  0
 21  1  1  0  0  0
  1  2  2  0  0  0
  2  3  1  0  0  0
  3  4  1  0  0  0
  3  5  2  0  0  0
  5  6  1  0  0  0
  6  8  1  0  0  0
  8  9  2  0  0  0
  9 10  1  0  0  0
 10 11  2  0  0  0
 11 14  1  0  0  0
 14 15  1  0  0  0
 14 16  2  0  0  0
 14 17  2  0  0  0
 11 12  1  0  0  0
 12 13  2  0  0  0
  6  7  2  0  0  0
  7  1  1  0  0  0
 13  8  1  0  0  0
 22 25  1  0  0  0
 29 32  1  0  0  0
 29 33  1  0  0  0
 15 18  1  0  0  0
 15 19  1  0  0  0
M  END
> <minimizedAffinity>
-7.75173

> <CNNscore>
0.6174307466

> <CNNaffinity>
5.9947423935

> <CNN_VS>
3.7013382912

> <CNNaffinity_variance>
0.2823299468

$$$$



 33 34  0  0  0  0  0  0  0  0999 V2000
   -8.7493    1.2674  -23.2224 C   0  0  0  0  0  0  0  0  0  0  0  0
  -10.1083    1.8362  -22.9408 C   0  0  0  0  0  0  0  0  0  0  0  0
  -11.3353    1.0177  -23.2141 C   0  0  0  0  0  0  0  0  0  0  0  0
  -12.6944    1.5867  -22.9324 Cl  0  0  0  0  0  0  0  0  0  0  0  0
  -11.2032   -0.3695  -23.7690 C   0  0  0  0  0  0  0  0  0  0  0  0
   -9.8441   -0.9384  -24.0506 C   0  0  0  0  0  0  0  0  0  0  0  0
   -8.6172   -0.1199  -23.7773 C   0  0  0  0  0  0  0  0  0  0  0  0
   -9.7120   -2.3257  -24.6055 C   0  0  0  0  0  0  0  0  0  0  0  0
  -10.8834   -3.2619  -24.5713 C   0  0  0  0  0  0  0  0  0  0  0  0
  -10.7513   -4.6492  -25.1262 C   0  0  0  0  0  0  0  0  0  0  0  0
   -9.4477   -5.1003  -25.7154 C   0  0  0  0  0  0  0  0  0  0  0  0
   -8.2762   -4.1640  -25.7496 C   0  0  0  0  0  0  0  0  0  0  0  0
   -8.4084   -2.7768  -25.1946 C   0  0  0  0  0  0  0  0  0  0  0  0
   -9.3155   -6.4876  -26.2703 S   0  0  0  0  0  0  0  0  0  0  0  0
   -9.1833   -7.8748  -26.8252 N   0  0  0  0  0  0  0  0  0  0  0  0
   -7.9691   -6.6185  -25.6222 O   0  0  0  0  0  0  0  0  0  0  0  0
  -10.6619   -6.3566  -26.9184 O   0  0  0  0  0  0  0  0  0  0  0  0
   -8.3454   -8.4236  -26.6322 H   0  0  0  0  0  0  0  0  0  0  0  0
   -9.9312   -8.2694  -27.3955 H   0  0  0  0  0  0  0  0  0  0  0  0
   -7.5857    3.5823  -23.0295 C   0  0  0  0  0  0  0  0  0  0  0  0
   -7.5223    2.0858  -22.9491 C   0  0  0  0  0  0  0  0  0  0  0  0
   -6.2319    1.4078  -22.5953 N   0  0  0  0  0  0  0  0  0  0  0  0
   -6.1705    0.4792  -21.4189 C   0  0  0  0  0  0  0  0  0  0  0  0
   -7.3994    0.2287  -20.5962 O   0  0  0  0  0  0  0  0  0  0  0  0
   -5.4253    1.5722  -23.1353 H   0  0  0  0  0  0  0  0  0  0  0  0
   -4.8800   -0.1988  -21.0652 C   0  0  0  0  0  0  0  0  0  0  0  0
   -4.7103   -0.8310  -19.7155 O   0  0  0  0  0  0  0  0  0  0  0  0
   -5.0558   -0.0588  -18.4769 S   0  0  0  0  0  0  0  0  0  0  0  0
   -5.4013    0.7134  -17.2381 N   0  0  0  0  0  0  0  0  0  0  0  0
   -4.2262    1.0924  -18.9630 O   0  0  0  0  0  0  0  0  0  0  0  0
   -5.8855   -1.2100  -17.9907 O   0  0  0  0  0  0  0  0  0  0  0  0
   -6.0074    0.2981  -16.5306 H   0  0  0  0  0  0  0  0  0  0  0  0
   -5.0302    1.6539  -17.1033 H   0  0  0  0  0  0  0  0  0  0  0  0
 21 20  1  0  0  0
 21 22  1  0  0  0
 22 23  1  0  0  0
 23 24  2  0  0  0
 23 26  1  0  0  0
 26 27  1  0  0  0
 27 28  1  0  0  0
 28 29  1  0  0  0
 28 30  2  0  0  0
 28 31  2  0  0  0
 21  1  1  0  0  0
  1  2  2  0  0  0
  2  3  1  0  0  0
  3  4  1  0  0  0
  3  5  2  0  0  0
  5  6  1  0  0  0
  6  8  1  0  0  0
  8  9  2  0  0  0
  9 10  1  0  0  0
 10 11  2  0  0  0
 11 14  1  0  0  0
 14 15  1  0  0  0
 14 16  2  0  0  0
 14 17  2  0  0  0
 11 12  1  0  0  0
 12 13  2  0  0  0
  6  7  2  0  0  0
  7  1  1  0  0  0
 13  8  1  0  0  0
 22 25  1  0  0  0
 29 32  1  0  0  0
 29 33  1  0  0  0
 15 18  1  0  0  0
 15 19  1  0  0  0
M  END
> <minimizedAffinity>
-7.14362

> <CNNscore>
0.4841827750

> <CNNaffinity>
5.7936611176

> <CNN_VS>
2.8051908016

> <CNNaffinity_variance>
0.2322561741

$$$$



 33 34  0  0  0  0  0  0  0  0999 V2000
   -8.6349   -1.5426  -22.4461 C   0  0  0  0  0  0  0  0  0  0  0  0
   -9.3008   -2.7819  -22.9662 C   0  0  0  0  0  0  0  0  0  0  0  0
  -10.6398   -2.6892  -23.6359 C   0  0  0  0  0  0  0  0  0  0  0  0
  -11.3057   -3.9286  -24.1560 Cl  0  0  0  0  0  0  0  0  0  0  0  0
  -11.3129   -1.3570  -23.7855 C   0  0  0  0  0  0  0  0  0  0  0  0
  -10.6469   -0.1177  -23.2654 C   0  0  0  0  0  0  0  0  0  0  0  0
   -9.3080   -0.2105  -22.5957 C   0  0  0  0  0  0  0  0  0  0  0  0
  -11.3200    1.2145  -23.4151 C   0  0  0  0  0  0  0  0  0  0  0  0
  -10.5067    2.4342  -23.7328 C   0  0  0  0  0  0  0  0  0  0  0  0
  -11.1798    3.7664  -23.8825 C   0  0  0  0  0  0  0  0  0  0  0  0
  -12.6661    3.8788  -23.7143 C   0  0  0  0  0  0  0  0  0  0  0  0
  -13.4793    2.6591  -23.3965 C   0  0  0  0  0  0  0  0  0  0  0  0
  -12.8063    1.3270  -23.2469 C   0  0  0  0  0  0  0  0  0  0  0  0
  -13.3391    5.2109  -23.8639 S   0  0  0  0  0  0  0  0  0  0  0  0
  -14.0122    6.5430  -24.0136 N   0  0  0  0  0  0  0  0  0  0  0  0
  -12.3953    5.5630  -24.9753 O   0  0  0  0  0  0  0  0  0  0  0  0
  -14.2830    4.8589  -22.7526 O   0  0  0  0  0  0  0  0  0  0  0  0
  -13.6852    7.2033  -24.7189 H   0  0  0  0  0  0  0  0  0  0  0  0
  -14.7969    6.7886  -23.4099 H   0  0  0  0  0  0  0  0  0  0  0  0
   -6.3631   -2.7594  -22.1173 C   0  0  0  0  0  0  0  0  0  0  0  0
   -7.2959   -1.6354  -21.7763 C   0  0  0  0  0  0  0  0  0  0  0  0
   -6.8898   -0.6041  -20.7656 N   0  0  0  0  0  0  0  0  0  0  0  0
   -6.0795   -1.0054  -19.5688 C   0  0  0  0  0  0  0  0  0  0  0  0
   -5.6753   -2.4378  -19.3827 O   0  0  0  0  0  0  0  0  0  0  0  0
   -7.1552    0.3360  -20.8877 H   0  0  0  0  0  0  0  0  0  0  0  0
   -5.6734    0.0260  -18.5580 C   0  0  0  0  0  0  0  0  0  0  0  0
   -4.9058    1.2395  -18.9917 O   0  0  0  0  0  0  0  0  0  0  0  0
   -3.7432    1.0964  -19.9286 S   0  0  0  0  0  0  0  0  0  0  0  0
   -2.5805    0.9532  -20.8655 N   0  0  0  0  0  0  0  0  0  0  0  0
   -4.1081   -0.3397  -20.1619 O   0  0  0  0  0  0  0  0  0  0  0  0
   -3.3783    2.5324  -19.6952 O   0  0  0  0  0  0  0  0  0  0  0  0
   -1.9703    1.7502  -21.0466 H   0  0  0  0  0  0  0  0  0  0  0  0
   -2.4001    0.0588  -21.3215 H   0  0  0  0  0  0  0  0  0  0  0  0
 21 20  1  0  0  0
 21 22  1  0  0  0
 22 23  1  0  0  0
 23 24  2  0  0  0
 23 26  1  0  0  0
 26 27  1  0  0  0
 27 28  1  0  0  0
 28 29  1  0  0  0
 28 30  2  0  0  0
 28 31  2  0  0  0
 21  1  1  0  0  0
  1  2  2  0  0  0
  2  3  1  0  0  0
  3  4  1  0  0  0
  3  5  2  0  0  0
  5  6  1  0  0  0
  6  8  1  0  0  0
  8  9  2  0  0  0
  9 10  1  0  0  0
 10 11  2  0  0  0
 11 14  1  0  0  0
 14 15  1  0  0  0
 14 16  2  0  0  0
 14 17  2  0  0  0
 11 12  1  0  0  0
 12 13  2  0  0  0
  6  7  2  0  0  0
  7  1  1  0  0  0
 13  8  1  0  0  0
 22 25  1  0  0  0
 29 32  1  0  0  0
 29 33  1  0  0  0
 15 18  1  0  0  0
 15 19  1  0  0  0
M  END
> <minimizedAffinity>
-7.59773

> <CNNscore>
0.4710975289

> <CNNaffinity>
5.5718998909

> <CNN_VS>
2.6249082088

> <CNNaffinity_variance>
0.2396323234

$$$$
