


 33 34  0  0  0  0  0  0  0  0999 V2000
    9.6838   -1.5140   23.2908 C   0  0  0  0  0  0  0  0  0  0  0  0
   10.8970   -2.2354   23.7986 C   0  0  0  0  0  0  0  0  0  0  0  0
   12.1682   -1.4800   24.0502 C   0  0  0  0  0  0  0  0  0  0  0  0
   13.3814   -2.2014   24.5579 Cl  0  0  0  0  0  0  0  0  0  0  0  0
   12.2263   -0.0032   23.7941 C   0  0  0  0  0  0  0  0  0  0  0  0
   11.0131    0.7182   23.2864 C   0  0  0  0  0  0  0  0  0  0  0  0
    9.7419   -0.0372   23.0348 C   0  0  0  0  0  0  0  0  0  0  0  0
   11.0712    2.1951   23.0304 C   0  0  0  0  0  0  0  0  0  0  0  0
   12.3676    2.8373   22.6345 C   0  0  0  0  0  0  0  0  0  0  0  0
   12.4257    4.3142   22.3784 C   0  0  0  0  0  0  0  0  0  0  0  0
   11.1872    5.1488   22.5182 C   0  0  0  0  0  0  0  0  0  0  0  0
    9.8907    4.5066   22.9141 C   0  0  0  0  0  0  0  0  0  0  0  0
    9.8327    3.0298   23.1702 C   0  0  0  0  0  0  0  0  0  0  0  0
   11.2452    6.6256   22.2621 S   0  0  0  0  0  0  0  0  0  0  0  0
   11.3031    8.1025   22.0061 N   0  0  0  0  0  0  0  0  0  0  0  0
    9.7982    6.7476   22.6380 O   0  0  0  0  0  0  0  0  0  0  0  0
   12.6921    6.5037   21.8863 O   0  0  0  0  0  0  0  0  0  0  0  0
   10.4707    8.6764   22.1404 H   0  0  0  0  0  0  0  0  0  0  0  0
   12.1750    8.5327   21.6977 H   0  0  0  0  0  0  0  0  0  0  0  0
    8.0805   -3.4755   23.8668 C   0  0  0  0  0  0  0  0  0  0  0  0
    8.4126   -2.2694   23.0392 C   0  0  0  0  0  0  0  0  0  0  0  0
    7.4735   -1.8188   21.9599 N   0  0  0  0  0  0  0  0  0  0  0  0
    6.4198   -0.7948   22.2620 C   0  0  0  0  0  0  0  0  0  0  0  0
    6.3053   -0.2214   23.6433 O   0  0  0  0  0  0  0  0  0  0  0  0
    7.5486   -2.1950   21.0533 H   0  0  0  0  0  0  0  0  0  0  0  0
    5.4807   -0.3441   21.1826 C   0  0  0  0  0  0  0  0  0  0  0  0
    5.9737    0.5525   20.0857 O   0  0  0  0  0  0  0  0  0  0  0  0
    5.3952    0.4380   18.7065 S   0  0  0  0  0  0  0  0  0  0  0  0
    4.8166    0.3235   17.3272 N   0  0  0  0  0  0  0  0  0  0  0  0
    4.0256    0.7002   19.2592 O   0  0  0  0  0  0  0  0  0  0  0  0
    6.7648    0.1758   18.1538 O   0  0  0  0  0  0  0  0  0  0  0  0
    5.4265    0.1302   16.5328 H   0  0  0  0  0  0  0  0  0  0  0  0
    3.8134    0.4390   17.1838 H   0  0  0  0  0  0  0  0  0  0  0  0
 21 20  1  0  0  0
 21 22  1  0  0  0
 22 23  1  0  0  0
 23 24  2  0  0  0
 23 26  1  0  0  0
 26 27  1  0  0  0
 27 28  1  0  0  0
 28 29  1  0  0  0
 28 30  2  0  0  0
 28 31  2  0  0  0
 21  1  1  0  0  0
  1  2  2  0  0  0
  2  3  1  0  0  0
  3  4  1  0  0  0
  3  5  2  0  0  0
  5  6  1  0  0  0
  6  8  1  0  0  0
  8  9  2  0  0  0
  9 10  1  0  0  0
 10 11  2  0  0  0
 11 14  1  0  0  0
 14 15  1  0  0  0
 14 16  2  0  0  0
 14 17  2  0  0  0
 11 12  1  0  0  0
 12 13  2  0  0  0
  6  7  2  0  0  0
  7  1  1  0  0  0
 13  8  1  0  0  0
 22 25  1  0  0  0
 29 32  1  0  0  0
 29 33  1  0  0  0
 15 18  1  0  0  0
 15 19  1  0  0  0
M  END
> <minimizedAffinity>
-7.77448

> <CNNscore>
0.8720640540

> <CNNaffinity>
6.5863218307

> <CNN_VS>
5.7436943054

> <CNNaffinity_variance>
0.2822431326

$$$$



 33 34  0  0  0  0  0  0  0  0999 V2000
    9.5355   -1.3512   23.4891 C   0  0  0  0  0  0  0  0  0  0  0  0
   10.7611   -2.1087   23.9064 C   0  0  0  0  0  0  0  0  0  0  0  0
   12.0716   -1.3936   24.0513 C   0  0  0  0  0  0  0  0  0  0  0  0
   13.2972   -2.1512   24.4686 Cl  0  0  0  0  0  0  0  0  0  0  0  0
   12.1566    0.0790   23.7791 C   0  0  0  0  0  0  0  0  0  0  0  0
   10.9310    0.8365   23.3618 C   0  0  0  0  0  0  0  0  0  0  0  0
    9.6205    0.1214   23.2168 C   0  0  0  0  0  0  0  0  0  0  0  0
   11.0160    2.3092   23.0895 C   0  0  0  0  0  0  0  0  0  0  0  0
    9.7894    3.1650   23.2038 C   0  0  0  0  0  0  0  0  0  0  0  0
    9.8744    4.6377   22.9315 C   0  0  0  0  0  0  0  0  0  0  0  0
   11.1859    5.2544   22.5449 C   0  0  0  0  0  0  0  0  0  0  0  0
   12.4125    4.3985   22.4307 C   0  0  0  0  0  0  0  0  0  0  0  0
   12.3275    2.9260   22.7030 C   0  0  0  0  0  0  0  0  0  0  0  0
   11.2709    6.7270   22.2726 S   0  0  0  0  0  0  0  0  0  0  0  0
   11.3559    8.1996   22.0003 N   0  0  0  0  0  0  0  0  0  0  0  0
    9.8101    6.8686   22.5825 O   0  0  0  0  0  0  0  0  0  0  0  0
   12.7317    6.5854   21.9628 O   0  0  0  0  0  0  0  0  0  0  0  0
   10.5245    8.7837   22.0902 H   0  0  0  0  0  0  0  0  0  0  0  0
   12.2451    8.6169   21.7253 H   0  0  0  0  0  0  0  0  0  0  0  0
    8.1369   -3.5362   23.6299 C   0  0  0  0  0  0  0  0  0  0  0  0
    8.2249   -2.0664   23.3441 C   0  0  0  0  0  0  0  0  0  0  0  0
    7.0023   -1.3116   22.9134 N   0  0  0  0  0  0  0  0  0  0  0  0
    6.9253   -0.7349   21.5308 C   0  0  0  0  0  0  0  0  0  0  0  0
    8.0709   -0.9128   20.5791 O   0  0  0  0  0  0  0  0  0  0  0  0
    6.2504   -1.1948   23.5380 H   0  0  0  0  0  0  0  0  0  0  0  0
    5.7027    0.0199   21.1000 C   0  0  0  0  0  0  0  0  0  0  0  0
    5.7887    1.0070   19.9739 O   0  0  0  0  0  0  0  0  0  0  0  0
    5.2618    0.6447   18.6171 S   0  0  0  0  0  0  0  0  0  0  0  0
    4.7349    0.2823   17.2601 N   0  0  0  0  0  0  0  0  0  0  0  0
    6.6628    0.4088   18.1360 O   0  0  0  0  0  0  0  0  0  0  0  0
    3.8608    0.8806   19.0981 O   0  0  0  0  0  0  0  0  0  0  0  0
    3.7307    0.2980   17.0821 H   0  0  0  0  0  0  0  0  0  0  0  0
    5.3808    0.0201   16.5155 H   0  0  0  0  0  0  0  0  0  0  0  0
 21 20  1  0  0  0
 21 22  1  0  0  0
 22 23  1  0  0  0
 23 24  2  0  0  0
 23 26  1  0  0  0
 26 27  1  0  0  0
 27 28  1  0  0  0
 28 29  1  0  0  0
 28 30  2  0  0  0
 28 31  2  0  0  0
 21  1  1  0  0  0
  1  2  2  0  0  0
  2  3  1  0  0  0
  3  4  1  0  0  0
  3  5  2  0  0  0
  5  6  1  0  0  0
  6  8  1  0  0  0
  8  9  2  0  0  0
  9 10  1  0  0  0
 10 11  2  0  0  0
 11 14  1  0  0  0
 14 15  1  0  0  0
 14 16  2  0  0  0
 14 17  2  0  0  0
 11 12  1  0  0  0
 12 13  2  0  0  0
  6  7  2  0  0  0
  7  1  1  0  0  0
 13  8  1  0  0  0
 22 25  1  0  0  0
 29 32  1  0  0  0
 29 33  1  0  0  0
 15 18  1  0  0  0
 15 19  1  0  0  0
M  END
> <minimizedAffinity>
-7.74067

> <CNNscore>
0.8318538666

> <CNNaffinity>
6.5515532494

> <CNN_VS>
5.4499349594

> <CNNaffinity_variance>
0.2474593669

$$$$



 33 34  0  0  0  0  0  0  0  0999 V2000
    8.3802   -2.4819   23.6293 C   0  0  0  0  0  0  0  0  0  0  0  0
    9.2374   -3.3384   24.5134 C   0  0  0  0  0  0  0  0  0  0  0  0
   10.5323   -2.8031   25.0488 C   0  0  0  0  0  0  0  0  0  0  0  0
   11.3895   -3.6597   25.9330 Cl  0  0  0  0  0  0  0  0  0  0  0  0
   10.9701   -1.4115   24.7001 C   0  0  0  0  0  0  0  0  0  0  0  0
   10.1129   -0.5551   23.8160 C   0  0  0  0  0  0  0  0  0  0  0  0
    8.8179   -1.0903   23.2806 C   0  0  0  0  0  0  0  0  0  0  0  0
   10.5506    0.8367   23.4673 C   0  0  0  0  0  0  0  0  0  0  0  0
   12.0000    1.1246   23.2096 C   0  0  0  0  0  0  0  0  0  0  0  0
   12.4377    2.5163   22.8609 C   0  0  0  0  0  0  0  0  0  0  0  0
   11.4260    3.6201   22.7698 C   0  0  0  0  0  0  0  0  0  0  0  0
    9.9766    3.3321   23.0275 C   0  0  0  0  0  0  0  0  0  0  0  0
    9.5390    1.9404   23.3762 C   0  0  0  0  0  0  0  0  0  0  0  0
   11.8637    5.0117   22.4211 S   0  0  0  0  0  0  0  0  0  0  0  0
   12.3014    6.4034   22.0724 N   0  0  0  0  0  0  0  0  0  0  0  0
   13.1659    4.4734   21.9069 O   0  0  0  0  0  0  0  0  0  0  0  0
   10.5615    5.5501   22.9353 O   0  0  0  0  0  0  0  0  0  0  0  0
   13.2171    6.5595   21.6510 H   0  0  0  0  0  0  0  0  0  0  0  0
   11.6833    7.1936   22.2566 H   0  0  0  0  0  0  0  0  0  0  0  0
    6.8637   -4.4982   23.0091 C   0  0  0  0  0  0  0  0  0  0  0  0
    7.0852   -3.0171   23.0939 C   0  0  0  0  0  0  0  0  0  0  0  0
    6.0119   -2.0712   22.6432 N   0  0  0  0  0  0  0  0  0  0  0  0
    6.2395   -1.1926   21.4490 C   0  0  0  0  0  0  0  0  0  0  0  0
    7.5405   -1.2598   20.7054 O   0  0  0  0  0  0  0  0  0  0  0  0
    5.1580   -2.0271   23.1312 H   0  0  0  0  0  0  0  0  0  0  0  0
    5.1661   -0.2467   20.9983 C   0  0  0  0  0  0  0  0  0  0  0  0
    5.4884    0.8407   20.0166 O   0  0  0  0  0  0  0  0  0  0  0  0
    5.1278    0.6761   18.5700 S   0  0  0  0  0  0  0  0  0  0  0  0
    4.7672    0.5116   17.1232 N   0  0  0  0  0  0  0  0  0  0  0  0
    6.5606    0.3714   18.2475 O   0  0  0  0  0  0  0  0  0  0  0  0
    3.6949    0.9809   18.8924 O   0  0  0  0  0  0  0  0  0  0  0  0
    3.8008    0.6351   16.8212 H   0  0  0  0  0  0  0  0  0  0  0  0
    5.4885    0.2761   16.4415 H   0  0  0  0  0  0  0  0  0  0  0  0
 21 20  1  0  0  0
 21 22  1  0  0  0
 22 23  1  0  0  0
 23 24  2  0  0  0
 23 26  1  0  0  0
 26 27  1  0  0  0
 27 28  1  0  0  0
 28 29  1  0  0  0
 28 30  2  0  0  0
 28 31  2  0  0  0
 21  1  1  0  0  0
  1  2  2  0  0  0
  2  3  1  0  0  0
  3  4  1  0  0  0
  3  5  2  0  0  0
  5  6  1  0  0  0
  6  8  1  0  0  0
  8  9  2  0  0  0
  9 10  1  0  0  0
 10 11  2  0  0  0
 11 14  1  0  0  0
 14 15  1  0  0  0
 14 16  2  0  0  0
 14 17  2  0  0  0
 11 12  1  0  0  0
 12 13  2  0  0  0
  6  7  2  0  0  0
  7  1  1  0  0  0
 13  8  1  0  0  0
 22 25  1  0  0  0
 29 32  1  0  0  0
 29 33  1  0  0  0
 15 18  1  0  0  0
 15 19  1  0  0  0
M  END
> <minimizedAffinity>
-7.61836

> <CNNscore>
0.6863421798

> <CNNaffinity>
6.3902816772

> <CNN_VS>
4.3859200478

> <CNNaffinity_variance>
0.1972202510

$$$$



 33 34  0  0  0  0  0  0  0  0999 V2000
   10.1986   -2.3186   23.4506 C   0  0  0  0  0  0  0  0  0  0  0  0
   11.2305   -2.5164   24.5212 C   0  0  0  0  0  0  0  0  0  0  0  0
   10.9560   -3.4477   25.6646 C   0  0  0  0  0  0  0  0  0  0  0  0
   11.9879   -3.6454   26.7351 Cl  0  0  0  0  0  0  0  0  0  0  0  0
    9.6497   -4.1812   25.7374 C   0  0  0  0  0  0  0  0  0  0  0  0
    8.6178   -3.9835   24.6668 C   0  0  0  0  0  0  0  0  0  0  0  0
    8.8923   -3.0522   23.5235 C   0  0  0  0  0  0  0  0  0  0  0  0
    7.3114   -4.7171   24.7396 C   0  0  0  0  0  0  0  0  0  0  0  0
    6.1406   -4.0960   25.4421 C   0  0  0  0  0  0  0  0  0  0  0  0
    4.8342   -4.8295   25.5149 C   0  0  0  0  0  0  0  0  0  0  0  0
    4.6986   -6.1842   24.8852 C   0  0  0  0  0  0  0  0  0  0  0  0
    5.8695   -6.8053   24.1827 C   0  0  0  0  0  0  0  0  0  0  0  0
    7.1758   -6.0717   24.1100 C   0  0  0  0  0  0  0  0  0  0  0  0
    3.3923   -6.9178   24.9580 S   0  0  0  0  0  0  0  0  0  0  0  0
    2.0860   -7.6513   25.0308 N   0  0  0  0  0  0  0  0  0  0  0  0
    3.2825   -6.8705   23.4628 O   0  0  0  0  0  0  0  0  0  0  0  0
    3.5021   -6.9650   26.4532 O   0  0  0  0  0  0  0  0  0  0  0  0
    1.5772   -7.8729   24.1750 H   0  0  0  0  0  0  0  0  0  0  0  0
    1.7065   -7.9286   25.9360 H   0  0  0  0  0  0  0  0  0  0  0  0
   11.8591   -0.8576   22.0875 C   0  0  0  0  0  0  0  0  0  0  0  0
   10.4731   -1.3873   22.3072 C   0  0  0  0  0  0  0  0  0  0  0  0
    9.3616   -0.9858   21.3836 N   0  0  0  0  0  0  0  0  0  0  0  0
    8.5239    0.2184   21.6972 C   0  0  0  0  0  0  0  0  0  0  0  0
    8.7978    1.0209   22.9344 O   0  0  0  0  0  0  0  0  0  0  0  0
    9.1818   -1.5125   20.5715 H   0  0  0  0  0  0  0  0  0  0  0  0
    7.4123    0.6200   20.7734 C   0  0  0  0  0  0  0  0  0  0  0  0
    6.4797   -0.4195   20.2260 O   0  0  0  0  0  0  0  0  0  0  0  0
    5.8238   -0.2113   18.8932 S   0  0  0  0  0  0  0  0  0  0  0  0
    5.1679   -0.0031   17.5603 N   0  0  0  0  0  0  0  0  0  0  0  0
    7.0907   -0.6253   18.2050 O   0  0  0  0  0  0  0  0  0  0  0  0
    4.5569    0.2026   19.5813 O   0  0  0  0  0  0  0  0  0  0  0  0
    4.1988    0.3114   17.5123 H   0  0  0  0  0  0  0  0  0  0  0  0
    5.6910   -0.1761   16.7019 H   0  0  0  0  0  0  0  0  0  0  0  0
 21 20  1  0  0  0
 21 22  1  0  0  0
 22 23  1  0  0  0
 23 24  2  0  0  0
 23 26  1  0  0  0
 26 27  1  0  0  0
 27 28  1  0  0  0
 28 29  1  0  0  0
 28 30  2  0  0  0
 28 31  2  0  0  0
 21  1  1  0  0  0
  1  2  2  0  0  0
  2  3  1  0  0  0
  3  4  1  0  0  0
  3  5  2  0  0  0
  5  6  1  0  0  0
  6  8  1  0  0  0
  8  9  2  0  0  0
  9 10  1  0  0  0
 10 11  2  0  0  0
 11 14  1  0  0  0
 14 15  1  0  0  0
 14 16  2  0  0  0
 14 17  2  0  0  0
 11 12  1  0  0  0
 12 13  2  0  0  0
  6  7  2  0  0  0
  7  1  1  0  0  0
 13  8  1  0  0  0
 22 25  1  0  0  0
 29 32  1  0  0  0
 29 33  1  0  0  0
 15 18  1  0  0  0
 15 19  1  0  0  0
M  END
> <minimizedAffinity>
-7.59002

> <CNNscore>
0.6759270430

> <CNNaffinity>
6.3918600082

> <CNN_VS>
4.3204312325

> <CNNaffinity_variance>
0.1868169010

$$$$



 33 34  0  0  0  0  0  0  0  0999 V2000
    8.3291   -2.4077   23.6761 C   0  0  0  0  0  0  0  0  0  0  0  0
    9.1894   -3.2759   24.5456 C   0  0  0  0  0  0  0  0  0  0  0  0
   10.5002   -2.7583   25.0594 C   0  0  0  0  0  0  0  0  0  0  0  0
   11.3605   -3.6265   25.9290 Cl  0  0  0  0  0  0  0  0  0  0  0  0
   10.9506   -1.3724   24.7038 C   0  0  0  0  0  0  0  0  0  0  0  0
   10.0903   -0.5042   23.8343 C   0  0  0  0  0  0  0  0  0  0  0  0
    8.7796   -1.0218   23.3205 C   0  0  0  0  0  0  0  0  0  0  0  0
   10.5407    0.8817   23.4786 C   0  0  0  0  0  0  0  0  0  0  0  0
    9.5360    1.9888   23.3572 C   0  0  0  0  0  0  0  0  0  0  0  0
    9.9864    3.3747   23.0015 C   0  0  0  0  0  0  0  0  0  0  0  0
   11.4416    3.6534   22.7673 C   0  0  0  0  0  0  0  0  0  0  0  0
   12.4463    2.5462   22.8888 C   0  0  0  0  0  0  0  0  0  0  0  0
   11.9959    1.1604   23.2444 C   0  0  0  0  0  0  0  0  0  0  0  0
   11.8920    5.0393   22.4116 S   0  0  0  0  0  0  0  0  0  0  0  0
   12.3424    6.4251   22.0560 N   0  0  0  0  0  0  0  0  0  0  0  0
   10.6227    5.5984   22.9827 O   0  0  0  0  0  0  0  0  0  0  0  0
   13.1613    4.4801   21.8405 O   0  0  0  0  0  0  0  0  0  0  0  0
   11.7481    7.2256   22.2714 H   0  0  0  0  0  0  0  0  0  0  0  0
   13.2431    6.5670   21.5987 H   0  0  0  0  0  0  0  0  0  0  0  0
    6.7627   -4.4025   23.1132 C   0  0  0  0  0  0  0  0  0  0  0  0
    7.0184   -2.9253   23.1623 C   0  0  0  0  0  0  0  0  0  0  0  0
    5.9634   -1.9657   22.6975 N   0  0  0  0  0  0  0  0  0  0  0  0
    6.1958   -1.1308   21.4732 C   0  0  0  0  0  0  0  0  0  0  0  0
    7.4833   -1.2554   20.7138 O   0  0  0  0  0  0  0  0  0  0  0  0
    5.1183   -1.8839   23.1959 H   0  0  0  0  0  0  0  0  0  0  0  0
    5.1407   -0.1712   21.0084 C   0  0  0  0  0  0  0  0  0  0  0  0
    5.4800    0.8855   19.9993 O   0  0  0  0  0  0  0  0  0  0  0  0
    5.1324    0.6820   18.5545 S   0  0  0  0  0  0  0  0  0  0  0  0
    4.7847    0.4785   17.1095 N   0  0  0  0  0  0  0  0  0  0  0  0
    3.6926    0.9706   18.8602 O   0  0  0  0  0  0  0  0  0  0  0  0
    6.5722    0.3935   18.2487 O   0  0  0  0  0  0  0  0  0  0  0  0
    5.5144    0.2394   16.4382 H   0  0  0  0  0  0  0  0  0  0  0  0
    3.8186    0.5792   16.7984 H   0  0  0  0  0  0  0  0  0  0  0  0
 21 20  1  0  0  0
 21 22  1  0  0  0
 22 23  1  0  0  0
 23 24  2  0  0  0
 23 26  1  0  0  0
 26 27  1  0  0  0
 27 28  1  0  0  0
 28 29  1  0  0  0
 28 30  2  0  0  0
 28 31  2  0  0  0
 21  1  1  0  0  0
  1  2  2  0  0  0
  2  3  1  0  0  0
  3  4  1  0  0  0
  3  5  2  0  0  0
  5  6  1  0  0  0
  6  8  1  0  0  0
  8  9  2  0  0  0
  9 10  1  0  0  0
 10 11  2  0  0  0
 11 14  1  0  0  0
 14 15  1  0  0  0
 14 16  2  0  0  0
 14 17  2  0  0  0
 11 12  1  0  0  0
 12 13  2  0  0  0
  6  7  2  0  0  0
  7  1  1  0  0  0
 13  8  1  0  0  0
 22 25  1  0  0  0
 29 32  1  0  0  0
 29 33  1  0  0  0
 15 18  1  0  0  0
 15 19  1  0  0  0
M  END
> <minimizedAffinity>
-7.55020

> <CNNscore>
0.6737262607

> <CNNaffinity>
6.3735928535

> <CNN_VS>
4.2940568924

> <CNNaffinity_variance>
0.2034800500

$$$$



 33 34  0  0  0  0  0  0  0  0999 V2000
   10.1508   -0.9570   24.2827 C   0  0  0  0  0  0  0  0  0  0  0  0
   11.4254   -1.4278   24.9181 C   0  0  0  0  0  0  0  0  0  0  0  0
   11.3936   -2.5274   25.9379 C   0  0  0  0  0  0  0  0  0  0  0  0
   12.6683   -2.9981   26.5733 Cl  0  0  0  0  0  0  0  0  0  0  0  0
   10.0872   -3.1562   26.3222 C   0  0  0  0  0  0  0  0  0  0  0  0
    8.8126   -2.6855   25.6868 C   0  0  0  0  0  0  0  0  0  0  0  0
    8.8444   -1.5859   24.6671 C   0  0  0  0  0  0  0  0  0  0  0  0
    7.5061   -3.3144   26.0712 C   0  0  0  0  0  0  0  0  0  0  0  0
    6.8009   -4.2253   25.1106 C   0  0  0  0  0  0  0  0  0  0  0  0
    5.4943   -4.8541   25.4949 C   0  0  0  0  0  0  0  0  0  0  0  0
    4.8932   -4.5721   26.8399 C   0  0  0  0  0  0  0  0  0  0  0  0
    5.5985   -3.6611   27.8005 C   0  0  0  0  0  0  0  0  0  0  0  0
    6.9049   -3.0323   27.4162 C   0  0  0  0  0  0  0  0  0  0  0  0
    3.5867   -5.2009   27.2243 S   0  0  0  0  0  0  0  0  0  0  0  0
    2.2803   -5.8297   27.6086 N   0  0  0  0  0  0  0  0  0  0  0  0
    4.1749   -6.5619   26.9970 O   0  0  0  0  0  0  0  0  0  0  0  0
    2.9985   -3.8399   27.4515 O   0  0  0  0  0  0  0  0  0  0  0  0
    2.1825   -6.8450   27.6055 H   0  0  0  0  0  0  0  0  0  0  0  0
    1.4897   -5.2420   27.8731 H   0  0  0  0  0  0  0  0  0  0  0  0
   11.2145    1.2268   23.3611 C   0  0  0  0  0  0  0  0  0  0  0  0
   10.1826    0.1425   23.2630 C   0  0  0  0  0  0  0  0  0  0  0  0
    9.1826    0.1579   22.1451 N   0  0  0  0  0  0  0  0  0  0  0  0
    7.9618    1.0240   22.2428 C   0  0  0  0  0  0  0  0  0  0  0  0
    7.7411    1.8748   23.4583 O   0  0  0  0  0  0  0  0  0  0  0  0
    9.3274   -0.4005   21.3474 H   0  0  0  0  0  0  0  0  0  0  0  0
    6.9617    1.0393   21.1248 C   0  0  0  0  0  0  0  0  0  0  0  0
    7.3349    0.4965   19.7772 O   0  0  0  0  0  0  0  0  0  0  0  0
    6.3193   -0.2454   18.9600 S   0  0  0  0  0  0  0  0  0  0  0  0
    5.3036   -0.9874   18.1427 N   0  0  0  0  0  0  0  0  0  0  0  0
    6.6916    0.5698   17.7572 O   0  0  0  0  0  0  0  0  0  0  0  0
    5.9469   -1.0606   20.1628 O   0  0  0  0  0  0  0  0  0  0  0  0
    4.7389   -1.7197   18.5731 H   0  0  0  0  0  0  0  0  0  0  0  0
    5.1775   -0.7595   17.1565 H   0  0  0  0  0  0  0  0  0  0  0  0
 21 20  1  0  0  0
 21 22  1  0  0  0
 22 23  1  0  0  0
 23 24  2  0  0  0
 23 26  1  0  0  0
 26 27  1  0  0  0
 27 28  1  0  0  0
 28 29  1  0  0  0
 28 30  2  0  0  0
 28 31  2  0  0  0
 21  1  1  0  0  0
  1  2  2  0  0  0
  2  3  1  0  0  0
  3  4  1  0  0  0
  3  5  2  0  0  0
  5  6  1  0  0  0
  6  8  1  0  0  0
  8  9  2  0  0  0
  9 10  1  0  0  0
 10 11  2  0  0  0
 11 14  1  0  0  0
 14 15  1  0  0  0
 14 16  2  0  0  0
 14 17  2  0  0  0
 11 12  1  0  0  0
 12 13  2  0  0  0
  6  7  2  0  0  0
  7  1  1  0  0  0
 13  8  1  0  0  0
 22 25  1  0  0  0
 29 32  1  0  0  0
 29 33  1  0  0  0
 15 18  1  0  0  0
 15 19  1  0  0  0
M  END
> <minimizedAffinity>
-6.80943

> <CNNscore>
0.5999383330

> <CNNaffinity>
6.1193256378

> <CNN_VS>
3.6712179184

> <CNNaffinity_variance>
0.1932460666

$$$$



 33 34  0  0  0  0  0  0  0  0999 V2000
    4.8644   -0.6882   24.7525 C   0  0  0  0  0  0  0  0  0  0  0  0
    4.0202   -1.6494   25.5357 C   0  0  0  0  0  0  0  0  0  0  0  0
    4.6718   -2.7038   26.3804 C   0  0  0  0  0  0  0  0  0  0  0  0
    3.8276   -3.6650   27.1637 Cl  0  0  0  0  0  0  0  0  0  0  0  0
    6.1676   -2.7970   26.4420 C   0  0  0  0  0  0  0  0  0  0  0  0
    7.0118   -1.8358   25.6588 C   0  0  0  0  0  0  0  0  0  0  0  0
    6.3602   -0.7814   24.8141 C   0  0  0  0  0  0  0  0  0  0  0  0
    8.5077   -1.9290   25.7204 C   0  0  0  0  0  0  0  0  0  0  0  0
    9.3518   -0.8280   25.1501 C   0  0  0  0  0  0  0  0  0  0  0  0
   10.8477   -0.9212   25.2117 C   0  0  0  0  0  0  0  0  0  0  0  0
   11.4994   -2.1154   25.8435 C   0  0  0  0  0  0  0  0  0  0  0  0
   10.6552   -3.2164   26.4138 C   0  0  0  0  0  0  0  0  0  0  0  0
    9.1594   -3.1231   26.3522 C   0  0  0  0  0  0  0  0  0  0  0  0
   12.9952   -2.2086   25.9051 S   0  0  0  0  0  0  0  0  0  0  0  0
   14.4910   -2.3018   25.9667 N   0  0  0  0  0  0  0  0  0  0  0  0
   13.1068   -0.9267   25.1343 O   0  0  0  0  0  0  0  0  0  0  0  0
   12.8836   -3.4905   26.6759 O   0  0  0  0  0  0  0  0  0  0  0  0
   15.0653   -1.5786   25.5337 H   0  0  0  0  0  0  0  0  0  0  0  0
   14.9339   -3.0884   26.4416 H   0  0  0  0  0  0  0  0  0  0  0  0
    3.1105    1.2088   24.4779 C   0  0  0  0  0  0  0  0  0  0  0  0
    4.2128    0.3662   23.9077 C   0  0  0  0  0  0  0  0  0  0  0  0
    4.6634    0.5781   22.4928 N   0  0  0  0  0  0  0  0  0  0  0  0
    5.6797    1.6360   22.1798 C   0  0  0  0  0  0  0  0  0  0  0  0
    6.2454    2.4820   23.2816 O   0  0  0  0  0  0  0  0  0  0  0  0
    4.2921    0.0228   21.7696 H   0  0  0  0  0  0  0  0  0  0  0  0
    6.1303    1.8478   20.7648 C   0  0  0  0  0  0  0  0  0  0  0  0
    6.6589    0.6939   19.9653 O   0  0  0  0  0  0  0  0  0  0  0  0
    5.9212    0.2258   18.7460 S   0  0  0  0  0  0  0  0  0  0  0  0
    5.1836   -0.2424   17.5267 N   0  0  0  0  0  0  0  0  0  0  0  0
    7.1409   -0.5218   18.2952 O   0  0  0  0  0  0  0  0  0  0  0  0
    4.7015    0.9734   19.1969 O   0  0  0  0  0  0  0  0  0  0  0  0
    4.2145    0.0387   17.3776 H   0  0  0  0  0  0  0  0  0  0  0  0
    5.6511   -0.8418   16.8466 H   0  0  0  0  0  0  0  0  0  0  0  0
 21 20  1  0  0  0
 21 22  1  0  0  0
 22 23  1  0  0  0
 23 24  2  0  0  0
 23 26  1  0  0  0
 26 27  1  0  0  0
 27 28  1  0  0  0
 28 29  1  0  0  0
 28 30  2  0  0  0
 28 31  2  0  0  0
 21  1  1  0  0  0
  1  2  2  0  0  0
  2  3  1  0  0  0
  3  4  1  0  0  0
  3  5  2  0  0  0
  5  6  1  0  0  0
  6  8  1  0  0  0
  8  9  2  0  0  0
  9 10  1  0  0  0
 10 11  2  0  0  0
 11 14  1  0  0  0
 14 15  1  0  0  0
 14 16  2  0  0  0
 14 17  2  0  0  0
 11 12  1  0  0  0
 12 13  2  0  0  0
  6  7  2  0  0  0
  7  1  1  0  0  0
 13  8  1  0  0  0
 22 25  1  0  0  0
 29 32  1  0  0  0
 29 33  1  0  0  0
 15 18  1  0  0  0
 15 19  1  0  0  0
M  END
> <minimizedAffinity>
-6.96273

> <CNNscore>
0.5928463936

> <CNNaffinity>
6.1386089325

> <CNN_VS>
3.6392521858

> <CNNaffinity_variance>
0.2464858592

$$$$



 33 34  0  0  0  0  0  0  0  0999 V2000
    8.7998    3.2388   23.0946 C   0  0  0  0  0  0  0  0  0  0  0  0
   10.0046    3.9931   22.6156 C   0  0  0  0  0  0  0  0  0  0  0  0
   11.3702    3.3865   22.7464 C   0  0  0  0  0  0  0  0  0  0  0  0
   12.5750    4.1409   22.2673 Cl  0  0  0  0  0  0  0  0  0  0  0  0
   11.5310    2.0256   23.3562 C   0  0  0  0  0  0  0  0  0  0  0  0
   10.3263    1.2713   23.8353 C   0  0  0  0  0  0  0  0  0  0  0  0
    8.9607    1.8779   23.7044 C   0  0  0  0  0  0  0  0  0  0  0  0
   10.4871   -0.0897   24.4451 C   0  0  0  0  0  0  0  0  0  0  0  0
   11.8590   -0.6454   24.6880 C   0  0  0  0  0  0  0  0  0  0  0  0
   12.0199   -2.0064   25.2978 C   0  0  0  0  0  0  0  0  0  0  0  0
   10.8087   -2.8117   25.6649 C   0  0  0  0  0  0  0  0  0  0  0  0
    9.4367   -2.2559   25.4220 C   0  0  0  0  0  0  0  0  0  0  0  0
    9.2760   -0.8950   24.8122 C   0  0  0  0  0  0  0  0  0  0  0  0
   10.9695   -4.1726   26.2747 S   0  0  0  0  0  0  0  0  0  0  0  0
   11.1303   -5.5335   26.8846 N   0  0  0  0  0  0  0  0  0  0  0  0
    9.8496   -4.6878   25.4201 O   0  0  0  0  0  0  0  0  0  0  0  0
   12.0893   -3.6573   27.1293 O   0  0  0  0  0  0  0  0  0  0  0  0
   10.5254   -6.2997   26.5887 H   0  0  0  0  0  0  0  0  0  0  0  0
   11.8444   -5.6928   27.5952 H   0  0  0  0  0  0  0  0  0  0  0  0
    7.1443    5.1808   23.5823 C   0  0  0  0  0  0  0  0  0  0  0  0
    7.4342    3.8454   22.9638 C   0  0  0  0  0  0  0  0  0  0  0  0
    6.3584    3.1166   22.2144 N   0  0  0  0  0  0  0  0  0  0  0  0
    6.7258    2.0963   21.1781 C   0  0  0  0  0  0  0  0  0  0  0  0
    8.1689    1.8048   20.8911 O   0  0  0  0  0  0  0  0  0  0  0  0
    5.4113    3.3079   22.4028 H   0  0  0  0  0  0  0  0  0  0  0  0
    5.6500    1.3675   20.4287 C   0  0  0  0  0  0  0  0  0  0  0  0
    5.9819    0.6369   19.1614 O   0  0  0  0  0  0  0  0  0  0  0  0
    5.5347   -0.7826   18.9748 S   0  0  0  0  0  0  0  0  0  0  0  0
    5.0874   -2.2022   18.7882 N   0  0  0  0  0  0  0  0  0  0  0  0
    5.3658   -0.5362   17.5049 O   0  0  0  0  0  0  0  0  0  0  0  0
    5.7036   -1.0290   20.4447 O   0  0  0  0  0  0  0  0  0  0  0  0
    5.0348   -2.8300   19.5904 H   0  0  0  0  0  0  0  0  0  0  0  0
    4.8359   -2.5397   17.8591 H   0  0  0  0  0  0  0  0  0  0  0  0
 21 20  1  0  0  0
 21 22  1  0  0  0
 22 23  1  0  0  0
 23 24  2  0  0  0
 23 26  1  0  0  0
 26 27  1  0  0  0
 27 28  1  0  0  0
 28 29  1  0  0  0
 28 30  2  0  0  0
 28 31  2  0  0  0
 21  1  1  0  0  0
  1  2  2  0  0  0
  2  3  1  0  0  0
  3  4  1  0  0  0
  3  5  2  0  0  0
  5  6  1  0  0  0
  6  8  1  0  0  0
  8  9  2  0  0  0
  9 10  1  0  0  0
 10 11  2  0  0  0
 11 14  1  0  0  0
 14 15  1  0  0  0
 14 16  2  0  0  0
 14 17  2  0  0  0
 11 12  1  0  0  0
 12 13  2  0  0  0
  6  7  2  0  0  0
  7  1  1  0  0  0
 13  8  1  0  0  0
 22 25  1  0  0  0
 29 32  1  0  0  0
 29 33  1  0  0  0
 15 18  1  0  0  0
 15 19  1  0  0  0
M  END
> <minimizedAffinity>
-7.79387

> <CNNscore>
0.5913841128

> <CNNaffinity>
6.0922088623

> <CNN_VS>
3.6028354168

> <CNNaffinity_variance>
0.1989850104

$$$$



 33 34  0  0  0  0  0  0  0  0999 V2000
   10.1474   -0.9106   24.3286 C   0  0  0  0  0  0  0  0  0  0  0  0
   11.4057   -1.3135   25.0387 C   0  0  0  0  0  0  0  0  0  0  0  0
   11.4664   -2.6193   25.7745 C   0  0  0  0  0  0  0  0  0  0  0  0
   12.7247   -3.0222   26.4847 Cl  0  0  0  0  0  0  0  0  0  0  0  0
   10.2688   -3.5221   25.8001 C   0  0  0  0  0  0  0  0  0  0  0  0
    9.0105   -3.1192   25.0899 C   0  0  0  0  0  0  0  0  0  0  0  0
    8.9498   -1.8134   24.3542 C   0  0  0  0  0  0  0  0  0  0  0  0
    7.8129   -4.0220   25.1155 C   0  0  0  0  0  0  0  0  0  0  0  0
    7.8223   -5.3028   24.3349 C   0  0  0  0  0  0  0  0  0  0  0  0
    6.6247   -6.2056   24.3604 C   0  0  0  0  0  0  0  0  0  0  0  0
    5.4176   -5.8276   25.1667 C   0  0  0  0  0  0  0  0  0  0  0  0
    5.4082   -4.5467   25.9473 C   0  0  0  0  0  0  0  0  0  0  0  0
    6.6058   -3.6440   25.9217 C   0  0  0  0  0  0  0  0  0  0  0  0
    4.2200   -6.7303   25.1923 S   0  0  0  0  0  0  0  0  0  0  0  0
    3.0223   -7.6331   25.2179 N   0  0  0  0  0  0  0  0  0  0  0  0
    3.3247   -5.5380   25.3555 O   0  0  0  0  0  0  0  0  0  0  0  0
    5.1152   -7.9227   25.0290 O   0  0  0  0  0  0  0  0  0  0  0  0
    2.0879   -7.2378   25.3227 H   0  0  0  0  0  0  0  0  0  0  0  0
    3.1424   -8.6422   25.1305 H   0  0  0  0  0  0  0  0  0  0  0  0
   11.3384    1.1927   23.3760 C   0  0  0  0  0  0  0  0  0  0  0  0
   10.0867    0.3951   23.5928 C   0  0  0  0  0  0  0  0  0  0  0  0
    8.7743    0.9033   23.0739 N   0  0  0  0  0  0  0  0  0  0  0  0
    8.1880    0.3234   21.8209 C   0  0  0  0  0  0  0  0  0  0  0  0
    8.9141   -0.7646   21.0868 O   0  0  0  0  0  0  0  0  0  0  0  0
    8.2978    1.6174   23.5557 H   0  0  0  0  0  0  0  0  0  0  0  0
    6.8756    0.8317   21.3020 C   0  0  0  0  0  0  0  0  0  0  0  0
    6.6751    1.0224   19.8277 O   0  0  0  0  0  0  0  0  0  0  0  0
    6.0931   -0.0852   19.0005 S   0  0  0  0  0  0  0  0  0  0  0  0
    5.5110   -1.1929   18.1732 N   0  0  0  0  0  0  0  0  0  0  0  0
    6.6613    0.5413   17.7618 O   0  0  0  0  0  0  0  0  0  0  0  0
    5.5248   -0.7118   20.2392 O   0  0  0  0  0  0  0  0  0  0  0  0
    4.9784   -1.9385   18.6214 H   0  0  0  0  0  0  0  0  0  0  0  0
    5.6477   -1.2005   17.1624 H   0  0  0  0  0  0  0  0  0  0  0  0
 21 20  1  0  0  0
 21 22  1  0  0  0
 22 23  1  0  0  0
 23 24  2  0  0  0
 23 26  1  0  0  0
 26 27  1  0  0  0
 27 28  1  0  0  0
 28 29  1  0  0  0
 28 30  2  0  0  0
 28 31  2  0  0  0
 21  1  1  0  0  0
  1  2  2  0  0  0
  2  3  1  0  0  0
  3  4  1  0  0  0
  3  5  2  0  0  0
  5  6  1  0  0  0
  6  8  1  0  0  0
  8  9  2  0  0  0
  9 10  1  0  0  0
 10 11  2  0  0  0
 11 14  1  0  0  0
 14 15  1  0  0  0
 14 16  2  0  0  0
 14 17  2  0  0  0
 11 12  1  0  0  0
 12 13  2  0  0  0
  6  7  2  0  0  0
  7  1  1  0  0  0
 13  8  1  0  0  0
 22 25  1  0  0  0
 29 32  1  0  0  0
 29 33  1  0  0  0
 15 18  1  0  0  0
 15 19  1  0  0  0
M  END
> <minimizedAffinity>
-7.52028

> <CNNscore>
0.5405048132

> <CNNaffinity>
6.1376295090

> <CNN_VS>
3.3174183369

> <CNNaffinity_variance>
0.1776772887

$$$$
