


 40 45  0  0  0  0  0  0  0  0999 V2000
   -7.3069   -1.2811  -23.8338 N   0  0  0  0  0  0  0  0  0  0  0  0
   -7.7137    0.1602  -23.9187 C   0  0  0  0  0  0  0  0  0  0  0  0
   -9.1565    0.5423  -23.7697 C   0  0  0  0  0  0  0  0  0  0  0  0
  -10.5534    1.0733  -23.6407 C   0  0  0  0  0  0  0  0  0  0  0  0
  -11.6870    0.6761  -23.4572 O   0  0  0  0  0  0  0  0  0  0  0  0
  -10.4980    2.5649  -23.7898 N   0  0  0  0  0  0  0  0  0  0  0  0
   -9.0669    2.9557  -24.0110 C   0  0  0  0  0  0  0  0  0  0  0  0
   -8.2378    1.7057  -23.9985 C   0  0  0  0  0  0  0  0  0  0  0  0
  -10.1926   -0.5168  -23.5357 C   0  0  0  0  0  0  0  0  0  0  0  0
  -11.6354   -0.1347  -23.3866 C   0  0  0  0  0  0  0  0  0  0  0  0
  -12.6714   -1.1938  -23.1526 C   0  0  0  0  0  0  0  0  0  0  0  0
  -14.1143   -0.8117  -23.0036 Cl  0  0  0  0  0  0  0  0  0  0  0  0
  -12.2647   -2.6351  -23.0677 C   0  0  0  0  0  0  0  0  0  0  0  0
  -10.8219   -3.0173  -23.2167 C   0  0  0  0  0  0  0  0  0  0  0  0
   -9.7859   -1.9581  -23.4507 C   0  0  0  0  0  0  0  0  0  0  0  0
   -8.3430   -2.3403  -23.5998 C   0  0  0  0  0  0  0  0  0  0  0  0
   -7.9362   -3.7815  -23.5148 O   0  0  0  0  0  0  0  0  0  0  0  0
  -11.6684    3.5011  -23.7285 C   0  0  0  0  0  0  0  0  0  0  0  0
  -12.5089    3.5709  -22.4881 C   0  0  0  0  0  0  0  0  0  0  0  0
  -13.6792    4.5071  -22.4268 N   0  0  0  0  0  0  0  0  0  0  0  0
  -14.0090    5.3736  -23.6060 C   0  0  0  0  0  0  0  0  0  0  0  0
  -13.1685    5.3038  -24.8464 C   0  0  0  0  0  0  0  0  0  0  0  0
  -13.4983    6.1704  -26.0256 C   0  0  0  0  0  0  0  0  0  0  0  0
  -12.6577    6.1006  -27.2660 C   0  0  0  0  0  0  0  0  0  0  0  0
  -11.4874    5.1643  -27.3273 C   0  0  0  0  0  0  0  0  0  0  0  0
  -11.1576    4.2978  -26.1481 C   0  0  0  0  0  0  0  0  0  0  0  0
  -11.9981    4.3676  -24.9077 C   0  0  0  0  0  0  0  0  0  0  0  0
   -5.8641   -1.6632  -23.9828 C   0  0  0  0  0  0  0  0  0  0  0  0
   -5.3390   -2.1042  -25.3169 C   0  0  0  0  0  0  0  0  0  0  0  0
   -4.2870   -3.9412  -26.8232 C   0  0  0  0  0  0  0  0  0  0  0  0
   -4.7420   -3.4714  -25.4733 N   0  0  0  0  0  0  0  0  0  0  0  0
   -4.6454   -4.0816  -24.6617 H   0  0  0  0  0  0  0  0  0  0  0  0
   -5.0514   -3.1519  -24.5554 H   0  0  0  0  0  0  0  0  0  0  0  0
   -6.7509    1.6321  -24.1826 C   0  0  0  0  0  0  0  0  0  0  0  0
   -5.8392    2.3048  -23.1997 O   0  0  0  0  0  0  0  0  0  0  0  0
   -4.6485    1.5712  -22.6574 C   0  0  0  0  0  0  0  0  0  0  0  0
   -4.3854    1.5562  -21.1808 C   0  0  0  0  0  0  0  0  0  0  0  0
   -3.9695    2.9827  -20.9758 F   0  0  0  0  0  0  0  0  0  0  0  0
   -4.2667    1.0457  -19.7753 C   0  0  0  0  0  0  0  0  0  0  0  0
   -4.7099    0.1244  -20.8730 C   0  0  0  0  0  0  0  0  0  0  0  0
 30 31  1  0  0  0
 31 29  1  0  0  0
 29 28  1  0  0  0
 28  1  1  0  0  0
  1  2  1  0  0  0
  3  2  1  0  0  0
  3  4  1  0  0  0
  4  5  2  0  0  0
  4  6  1  0  0  0
  6 18  1  0  0  0
 18 19  2  0  0  0
 19 20  1  0  0  0
 20 21  2  0  0  0
 21 22  1  0  0  0
 22 23  2  0  0  0
 23 24  1  0  0  0
 24 25  2  0  0  0
 25 26  1  0  0  0
 26 27  2  0  0  0
  6  7  1  0  0  0
  7  8  1  0  0  0
  8 34  1  0  0  0
 34 35  1  0  0  0
 35 36  1  0  0  0
 36 37  1  0  0  0
 37 38  1  0  0  0
 37 39  1  0  0  0
 39 40  1  0  0  0
  3  9  1  0  0  0
  9 10  2  0  0  0
 10 11  1  0  0  0
 11 12  1  0  0  0
 11 13  2  0  0  0
 13 14  1  0  0  0
 14 15  2  0  0  0
 15 16  1  0  0  0
 16 17  2  0  0  0
 16  1  1  0  0  0
  8  3  1  0  0  0
 40 37  1  0  0  0
 15  9  1  0  0  0
 27 18  1  0  0  0
 27 22  1  0  0  0
 31 32  1  0  0  0
 31 33  1  0  0  0
M  CHG 1  31   1
M  END
> <minimizedAffinity>
-6.92753

> <CNNscore>
0.6818767190

> <CNNaffinity>
6.8078751564

> <CNN_VS>
4.6421318054

> <CNNaffinity_variance>
0.0706062466

$$$$



 40 45  0  0  0  0  0  0  0  0999 V2000
   -7.0072   -0.7391  -22.9074 N   0  0  0  0  0  0  0  0  0  0  0  0
   -7.4762    0.6656  -23.1460 C   0  0  0  0  0  0  0  0  0  0  0  0
   -8.9423    0.9549  -23.2757 C   0  0  0  0  0  0  0  0  0  0  0  0
  -10.3685    1.3948  -23.4256 C   0  0  0  0  0  0  0  0  0  0  0  0
  -11.4912    0.9301  -23.4217 O   0  0  0  0  0  0  0  0  0  0  0  0
  -10.3751    2.8781  -23.6488 N   0  0  0  0  0  0  0  0  0  0  0  0
   -8.9530    3.3549  -23.6369 C   0  0  0  0  0  0  0  0  0  0  0  0
   -8.0675    2.1664  -23.4063 C   0  0  0  0  0  0  0  0  0  0  0  0
   -9.9394   -0.1604  -23.1667 C   0  0  0  0  0  0  0  0  0  0  0  0
  -11.4055    0.1289  -23.2963 C   0  0  0  0  0  0  0  0  0  0  0  0
  -12.4026   -0.9864  -23.1873 C   0  0  0  0  0  0  0  0  0  0  0  0
  -13.8687   -0.6970  -23.3169 Cl  0  0  0  0  0  0  0  0  0  0  0  0
  -11.9335   -2.3910  -22.9487 C   0  0  0  0  0  0  0  0  0  0  0  0
  -10.4675   -2.6804  -22.8191 C   0  0  0  0  0  0  0  0  0  0  0  0
   -9.4704   -1.5651  -22.9281 C   0  0  0  0  0  0  0  0  0  0  0  0
   -8.0042   -1.8544  -22.7984 C   0  0  0  0  0  0  0  0  0  0  0  0
   -7.5352   -3.2591  -22.5598 O   0  0  0  0  0  0  0  0  0  0  0  0
  -11.5905    3.7342  -23.8489 C   0  0  0  0  0  0  0  0  0  0  0  0
  -12.5413    3.9641  -22.7118 C   0  0  0  0  0  0  0  0  0  0  0  0
  -13.7567    4.8202  -22.9118 N   0  0  0  0  0  0  0  0  0  0  0  0
  -14.0212    5.4463  -24.2490 C   0  0  0  0  0  0  0  0  0  0  0  0
  -13.0703    5.2163  -25.3861 C   0  0  0  0  0  0  0  0  0  0  0  0
  -13.3348    5.8425  -26.7233 C   0  0  0  0  0  0  0  0  0  0  0  0
  -12.3839    5.6125  -27.8603 C   0  0  0  0  0  0  0  0  0  0  0  0
  -11.1685    4.7565  -27.6603 C   0  0  0  0  0  0  0  0  0  0  0  0
  -10.9040    4.1303  -26.3231 C   0  0  0  0  0  0  0  0  0  0  0  0
  -11.8549    4.3603  -25.1860 C   0  0  0  0  0  0  0  0  0  0  0  0
   -5.5410   -1.0285  -22.7778 C   0  0  0  0  0  0  0  0  0  0  0  0
   -4.7638   -0.4625  -21.6264 C   0  0  0  0  0  0  0  0  0  0  0  0
   -5.4342   -2.3322  -19.9517 C   0  0  0  0  0  0  0  0  0  0  0  0
   -5.0704   -0.9030  -20.2258 N   0  0  0  0  0  0  0  0  0  0  0  0
   -5.0316   -0.2307  -19.4597 H   0  0  0  0  0  0  0  0  0  0  0  0
   -4.8231    0.0689  -20.4122 H   0  0  0  0  0  0  0  0  0  0  0  0
   -6.5700    2.1859  -23.3212 C   0  0  0  0  0  0  0  0  0  0  0  0
   -5.8419    3.4927  -23.2124 O   0  0  0  0  0  0  0  0  0  0  0  0
   -5.5708    4.3051  -24.4438 C   0  0  0  0  0  0  0  0  0  0  0  0
   -4.8558    5.6191  -24.3331 C   0  0  0  0  0  0  0  0  0  0  0  0
   -5.1800    6.2060  -25.6749 F   0  0  0  0  0  0  0  0  0  0  0  0
   -4.0281    6.7292  -23.7563 C   0  0  0  0  0  0  0  0  0  0  0  0
   -4.2832    5.4885  -22.9528 C   0  0  0  0  0  0  0  0  0  0  0  0
 30 31  1  0  0  0
 31 29  1  0  0  0
 29 28  1  0  0  0
 28  1  1  0  0  0
  1  2  1  0  0  0
  3  2  1  0  0  0
  3  4  1  0  0  0
  4  5  2  0  0  0
  4  6  1  0  0  0
  6 18  1  0  0  0
 18 19  2  0  0  0
 19 20  1  0  0  0
 20 21  2  0  0  0
 21 22  1  0  0  0
 22 23  2  0  0  0
 23 24  1  0  0  0
 24 25  2  0  0  0
 25 26  1  0  0  0
 26 27  2  0  0  0
  6  7  1  0  0  0
  7  8  1  0  0  0
  8 34  1  0  0  0
 34 35  1  0  0  0
 35 36  1  0  0  0
 36 37  1  0  0  0
 37 38  1  0  0  0
 37 39  1  0  0  0
 39 40  1  0  0  0
  3  9  1  0  0  0
  9 10  2  0  0  0
 10 11  1  0  0  0
 11 12  1  0  0  0
 11 13  2  0  0  0
 13 14  1  0  0  0
 14 15  2  0  0  0
 15 16  1  0  0  0
 16 17  2  0  0  0
 16  1  1  0  0  0
  8  3  1  0  0  0
 40 37  1  0  0  0
 15  9  1  0  0  0
 27 18  1  0  0  0
 27 22  1  0  0  0
 31 32  1  0  0  0
 31 33  1  0  0  0
M  CHG 1  31   1
M  END
> <minimizedAffinity>
-6.60090

> <CNNscore>
0.5966077447

> <CNNaffinity>
6.9338407516

> <CNN_VS>
4.1367831230

> <CNNaffinity_variance>
0.2189612091

$$$$



 40 45  0  0  0  0  0  0  0  0999 V2000
   -7.7875   -3.3117  -26.5023 N   0  0  0  0  0  0  0  0  0  0  0  0
   -7.3595   -3.4794  -25.0745 C   0  0  0  0  0  0  0  0  0  0  0  0
   -7.1089   -2.2725  -24.2199 C   0  0  0  0  0  0  0  0  0  0  0  0
   -6.8231   -1.1652  -23.2492 C   0  0  0  0  0  0  0  0  0  0  0  0
   -6.8131    0.0488  -23.1986 O   0  0  0  0  0  0  0  0  0  0  0  0
   -6.4291   -1.7853  -21.9414 N   0  0  0  0  0  0  0  0  0  0  0  0
   -6.4715   -3.2759  -22.1039 C   0  0  0  0  0  0  0  0  0  0  0  0
   -6.8915   -3.5769  -23.5120 C   0  0  0  0  0  0  0  0  0  0  0  0
   -7.2862   -0.8976  -24.7931 C   0  0  0  0  0  0  0  0  0  0  0  0
   -7.0356    0.3093  -23.9385 C   0  0  0  0  0  0  0  0  0  0  0  0
   -7.2129    1.6840  -24.5118 C   0  0  0  0  0  0  0  0  0  0  0  0
   -6.9623    2.8911  -23.6572 Cl  0  0  0  0  0  0  0  0  0  0  0  0
   -7.6409    1.8518  -25.9396 C   0  0  0  0  0  0  0  0  0  0  0  0
   -7.8915    0.6448  -26.7942 C   0  0  0  0  0  0  0  0  0  0  0  0
   -7.7142   -0.7299  -26.2210 C   0  0  0  0  0  0  0  0  0  0  0  0
   -7.9648   -1.9370  -27.0756 C   0  0  0  0  0  0  0  0  0  0  0  0
   -8.3927   -1.7692  -28.5034 O   0  0  0  0  0  0  0  0  0  0  0  0
   -6.0581   -1.0449  -20.6908 C   0  0  0  0  0  0  0  0  0  0  0  0
   -6.8998   -1.1868  -19.4574 C   0  0  0  0  0  0  0  0  0  0  0  0
   -6.5287   -0.4464  -18.2068 N   0  0  0  0  0  0  0  0  0  0  0  0
   -5.3159    0.4360  -18.1896 C   0  0  0  0  0  0  0  0  0  0  0  0
   -4.4741    0.5780  -19.4231 C   0  0  0  0  0  0  0  0  0  0  0  0
   -3.2612    1.4605  -19.4058 C   0  0  0  0  0  0  0  0  0  0  0  0
   -2.4195    1.6024  -20.6393 C   0  0  0  0  0  0  0  0  0  0  0  0
   -2.7906    0.8619  -21.8899 C   0  0  0  0  0  0  0  0  0  0  0  0
   -4.0035   -0.0205  -21.9071 C   0  0  0  0  0  0  0  0  0  0  0  0
   -4.8452   -0.1624  -20.6737 C   0  0  0  0  0  0  0  0  0  0  0  0
   -8.0381   -4.5187  -27.3569 C   0  0  0  0  0  0  0  0  0  0  0  0
   -9.4389   -5.0137  -27.5634 C   0  0  0  0  0  0  0  0  0  0  0  0
   -9.3261   -7.2560  -26.2561 C   0  0  0  0  0  0  0  0  0  0  0  0
   -9.7370   -6.4809  -27.4728 N   0  0  0  0  0  0  0  0  0  0  0  0
  -10.2191   -6.9517  -28.2386 H   0  0  0  0  0  0  0  0  0  0  0  0
  -10.0164   -5.9539  -28.3002 H   0  0  0  0  0  0  0  0  0  0  0  0
   -7.0640   -4.9427  -24.1077 C   0  0  0  0  0  0  0  0  0  0  0  0
   -7.7212   -6.0308  -23.3114 O   0  0  0  0  0  0  0  0  0  0  0  0
   -6.8961   -7.1471  -22.7429 C   0  0  0  0  0  0  0  0  0  0  0  0
   -5.4125   -6.9827  -22.5945 C   0  0  0  0  0  0  0  0  0  0  0  0
   -5.3418   -6.5351  -21.1646 F   0  0  0  0  0  0  0  0  0  0  0  0
   -3.9535   -6.9739  -22.9427 C   0  0  0  0  0  0  0  0  0  0  0  0
   -4.9680   -7.3733  -23.9729 C   0  0  0  0  0  0  0  0  0  0  0  0
 30 31  1  0  0  0
 31 29  1  0  0  0
 29 28  1  0  0  0
 28  1  1  0  0  0
  1  2  1  0  0  0
  3  2  1  0  0  0
  3  4  1  0  0  0
  4  5  2  0  0  0
  4  6  1  0  0  0
  6 18  1  0  0  0
 18 19  2  0  0  0
 19 20  1  0  0  0
 20 21  2  0  0  0
 21 22  1  0  0  0
 22 23  2  0  0  0
 23 24  1  0  0  0
 24 25  2  0  0  0
 25 26  1  0  0  0
 26 27  2  0  0  0
  6  7  1  0  0  0
  7  8  1  0  0  0
  8 34  1  0  0  0
 34 35  1  0  0  0
 35 36  1  0  0  0
 36 37  1  0  0  0
 37 38  1  0  0  0
 37 39  1  0  0  0
 39 40  1  0  0  0
  3  9  1  0  0  0
  9 10  2  0  0  0
 10 11  1  0  0  0
 11 12  1  0  0  0
 11 13  2  0  0  0
 13 14  1  0  0  0
 14 15  2  0  0  0
 15 16  1  0  0  0
 16 17  2  0  0  0
 16  1  1  0  0  0
  8  3  1  0  0  0
 40 37  1  0  0  0
 15  9  1  0  0  0
 27 18  1  0  0  0
 27 22  1  0  0  0
 31 32  1  0  0  0
 31 33  1  0  0  0
M  CHG 1  31   1
M  END
> <minimizedAffinity>
-7.71915

> <CNNscore>
0.4344206750

> <CNNaffinity>
6.5713095665

> <CNN_VS>
2.8547127247

> <CNNaffinity_variance>
0.3198731542

$$$$



 40 45  0  0  0  0  0  0  0  0999 V2000
   -5.3678   -6.2304  -23.4703 N   0  0  0  0  0  0  0  0  0  0  0  0
   -5.9268   -4.9655  -22.8893 C   0  0  0  0  0  0  0  0  0  0  0  0
   -6.9427   -4.1725  -23.6569 C   0  0  0  0  0  0  0  0  0  0  0  0
   -7.9592   -3.2791  -24.3037 C   0  0  0  0  0  0  0  0  0  0  0  0
   -8.6148   -3.2007  -25.3238 O   0  0  0  0  0  0  0  0  0  0  0  0
   -8.2281   -2.1333  -23.3737 N   0  0  0  0  0  0  0  0  0  0  0  0
   -7.3778   -2.3187  -22.1520 C   0  0  0  0  0  0  0  0  0  0  0  0
   -6.5834   -3.5789  -22.3270 C   0  0  0  0  0  0  0  0  0  0  0  0
   -7.3996   -4.6445  -25.0054 C   0  0  0  0  0  0  0  0  0  0  0  0
   -8.4155   -3.8515  -25.7729 C   0  0  0  0  0  0  0  0  0  0  0  0
   -8.8724   -4.3235  -27.1214 C   0  0  0  0  0  0  0  0  0  0  0  0
   -9.8884   -3.5305  -27.8890 Cl  0  0  0  0  0  0  0  0  0  0  0  0
   -8.3134   -5.5884  -27.7024 C   0  0  0  0  0  0  0  0  0  0  0  0
   -7.2975   -6.3813  -26.9349 C   0  0  0  0  0  0  0  0  0  0  0  0
   -6.8406   -5.9094  -25.5864 C   0  0  0  0  0  0  0  0  0  0  0  0
   -5.8247   -6.7023  -24.8188 C   0  0  0  0  0  0  0  0  0  0  0  0
   -5.2657   -7.9672  -25.3998 O   0  0  0  0  0  0  0  0  0  0  0  0
   -9.1802   -1.0011  -23.6218 C   0  0  0  0  0  0  0  0  0  0  0  0
   -8.6719    0.3003  -24.1678 C   0  0  0  0  0  0  0  0  0  0  0  0
   -9.6240    1.4325  -24.4159 N   0  0  0  0  0  0  0  0  0  0  0  0
  -11.0844    1.2634  -24.1180 C   0  0  0  0  0  0  0  0  0  0  0  0
  -11.5926   -0.0380  -23.5720 C   0  0  0  0  0  0  0  0  0  0  0  0
  -13.0531   -0.2071  -23.2742 C   0  0  0  0  0  0  0  0  0  0  0  0
  -13.5612   -1.5085  -22.7282 C   0  0  0  0  0  0  0  0  0  0  0  0
  -12.6092   -2.6408  -22.4801 C   0  0  0  0  0  0  0  0  0  0  0  0
  -11.1488   -2.4716  -22.7779 C   0  0  0  0  0  0  0  0  0  0  0  0
  -10.6406   -1.1702  -23.3239 C   0  0  0  0  0  0  0  0  0  0  0  0
   -4.3518   -7.0233  -22.7027 C   0  0  0  0  0  0  0  0  0  0  0  0
   -2.9595   -7.1774  -23.2391 C   0  0  0  0  0  0  0  0  0  0  0  0
   -0.7475   -8.5357  -23.3491 C   0  0  0  0  0  0  0  0  0  0  0  0
   -2.0480   -8.2238  -22.6698 N   0  0  0  0  0  0  0  0  0  0  0  0
   -2.3125   -8.7234  -21.8207 H   0  0  0  0  0  0  0  0  0  0  0  0
   -2.9324   -8.0118  -22.2079 H   0  0  0  0  0  0  0  0  0  0  0  0
   -5.6019   -4.1461  -21.3446 C   0  0  0  0  0  0  0  0  0  0  0  0
   -5.1690   -3.3317  -20.1618 O   0  0  0  0  0  0  0  0  0  0  0  0
   -5.8647   -2.0412  -19.8445 C   0  0  0  0  0  0  0  0  0  0  0  0
   -5.0784   -0.7668  -19.7580 C   0  0  0  0  0  0  0  0  0  0  0  0
   -4.4880   -0.7309  -21.1365 F   0  0  0  0  0  0  0  0  0  0  0  0
   -4.4971    0.4952  -19.1927 C   0  0  0  0  0  0  0  0  0  0  0  0
   -5.3956   -0.3600  -18.3495 C   0  0  0  0  0  0  0  0  0  0  0  0
 30 31  1  0  0  0
 31 29  1  0  0  0
 29 28  1  0  0  0
 28  1  1  0  0  0
  1  2  1  0  0  0
  3  2  1  0  0  0
  3  4  1  0  0  0
  4  5  2  0  0  0
  4  6  1  0  0  0
  6 18  1  0  0  0
 18 19  2  0  0  0
 19 20  1  0  0  0
 20 21  2  0  0  0
 21 22  1  0  0  0
 22 23  2  0  0  0
 23 24  1  0  0  0
 24 25  2  0  0  0
 25 26  1  0  0  0
 26 27  2  0  0  0
  6  7  1  0  0  0
  7  8  1  0  0  0
  8 34  1  0  0  0
 34 35  1  0  0  0
 35 36  1  0  0  0
 36 37  1  0  0  0
 37 38  1  0  0  0
 37 39  1  0  0  0
 39 40  1  0  0  0
  3  9  1  0  0  0
  9 10  2  0  0  0
 10 11  1  0  0  0
 11 12  1  0  0  0
 11 13  2  0  0  0
 13 14  1  0  0  0
 14 15  2  0  0  0
 15 16  1  0  0  0
 16 17  2  0  0  0
 16  1  1  0  0  0
  8  3  1  0  0  0
 40 37  1  0  0  0
 15  9  1  0  0  0
 27 18  1  0  0  0
 27 22  1  0  0  0
 31 32  1  0  0  0
 31 33  1  0  0  0
M  CHG 1  31   1
M  END
> <minimizedAffinity>
-7.70940

> <CNNscore>
0.3608548939

> <CNNaffinity>
6.7503342628

> <CNN_VS>
2.4358911514

> <CNNaffinity_variance>
0.1680087745

$$$$



 40 45  0  0  0  0  0  0  0  0999 V2000
   -8.4351   -5.6492  -24.4643 N   0  0  0  0  0  0  0  0  0  0  0  0
   -7.3814   -5.2884  -23.4596 C   0  0  0  0  0  0  0  0  0  0  0  0
   -7.4144   -3.9482  -22.7867 C   0  0  0  0  0  0  0  0  0  0  0  0
   -7.3180   -2.6527  -22.0368 C   0  0  0  0  0  0  0  0  0  0  0  0
   -7.8999   -1.5909  -21.9344 O   0  0  0  0  0  0  0  0  0  0  0  0
   -6.1162   -2.7233  -21.1420 N   0  0  0  0  0  0  0  0  0  0  0  0
   -5.4697   -4.0624  -21.3389 C   0  0  0  0  0  0  0  0  0  0  0  0
   -6.2721   -4.8195  -22.3553 C   0  0  0  0  0  0  0  0  0  0  0  0
   -8.5011   -2.9688  -23.1185 C   0  0  0  0  0  0  0  0  0  0  0  0
   -8.5341   -1.6287  -22.4456 C   0  0  0  0  0  0  0  0  0  0  0  0
   -9.6207   -0.6494  -22.7775 C   0  0  0  0  0  0  0  0  0  0  0  0
   -9.6537    0.6908  -22.1046 Cl  0  0  0  0  0  0  0  0  0  0  0  0
  -10.6744   -1.0103  -23.7823 C   0  0  0  0  0  0  0  0  0  0  0  0
  -10.6414   -2.3504  -24.4552 C   0  0  0  0  0  0  0  0  0  0  0  0
   -9.5547   -3.3297  -24.1233 C   0  0  0  0  0  0  0  0  0  0  0  0
   -9.5217   -4.6700  -24.7962 C   0  0  0  0  0  0  0  0  0  0  0  0
  -10.5754   -5.0308  -25.8010 O   0  0  0  0  0  0  0  0  0  0  0  0
   -5.6438   -1.6442  -20.2134 C   0  0  0  0  0  0  0  0  0  0  0  0
   -5.9879   -1.7062  -18.7547 C   0  0  0  0  0  0  0  0  0  0  0  0
   -5.5154   -0.6271  -17.8261 N   0  0  0  0  0  0  0  0  0  0  0  0
   -4.6989    0.5140  -18.3562 C   0  0  0  0  0  0  0  0  0  0  0  0
   -4.3548    0.5761  -19.8149 C   0  0  0  0  0  0  0  0  0  0  0  0
   -3.5382    1.7173  -20.3450 C   0  0  0  0  0  0  0  0  0  0  0  0
   -3.1941    1.7793  -21.8037 C   0  0  0  0  0  0  0  0  0  0  0  0
   -3.6666    0.7001  -22.7323 C   0  0  0  0  0  0  0  0  0  0  0  0
   -4.4831   -0.4410  -22.2022 C   0  0  0  0  0  0  0  0  0  0  0  0
   -4.8272   -0.5030  -20.7435 C   0  0  0  0  0  0  0  0  0  0  0  0
   -8.4020   -6.9895  -25.1373 C   0  0  0  0  0  0  0  0  0  0  0  0
   -9.3772   -7.3027  -26.2331 C   0  0  0  0  0  0  0  0  0  0  0  0
   -8.3369   -6.4870  -28.4697 C   0  0  0  0  0  0  0  0  0  0  0  0
   -8.8807   -7.5955  -27.6179 N   0  0  0  0  0  0  0  0  0  0  0  0
   -8.9129   -8.5483  -27.9804 H   0  0  0  0  0  0  0  0  0  0  0  0
   -9.2505   -8.3493  -27.0387 H   0  0  0  0  0  0  0  0  0  0  0  0
   -5.9829   -6.2046  -22.8531 C   0  0  0  0  0  0  0  0  0  0  0  0
   -4.6025   -6.7763  -22.7205 O   0  0  0  0  0  0  0  0  0  0  0  0
   -3.6876   -6.8107  -23.9087 C   0  0  0  0  0  0  0  0  0  0  0  0
   -4.2590   -6.8098  -25.2956 C   0  0  0  0  0  0  0  0  0  0  0  0
   -4.2489   -5.3372  -25.5806 F   0  0  0  0  0  0  0  0  0  0  0  0
   -4.8340   -7.3205  -26.5835 C   0  0  0  0  0  0  0  0  0  0  0  0
   -4.4677   -8.2822  -25.4922 C   0  0  0  0  0  0  0  0  0  0  0  0
 30 31  1  0  0  0
 31 29  1  0  0  0
 29 28  1  0  0  0
 28  1  1  0  0  0
  1  2  1  0  0  0
  3  2  1  0  0  0
  3  4  1  0  0  0
  4  5  2  0  0  0
  4  6  1  0  0  0
  6 18  1  0  0  0
 18 19  2  0  0  0
 19 20  1  0  0  0
 20 21  2  0  0  0
 21 22  1  0  0  0
 22 23  2  0  0  0
 23 24  1  0  0  0
 24 25  2  0  0  0
 25 26  1  0  0  0
 26 27  2  0  0  0
  6  7  1  0  0  0
  7  8  1  0  0  0
  8 34  1  0  0  0
 34 35  1  0  0  0
 35 36  1  0  0  0
 36 37  1  0  0  0
 37 38  1  0  0  0
 37 39  1  0  0  0
 39 40  1  0  0  0
  3  9  1  0  0  0
  9 10  2  0  0  0
 10 11  1  0  0  0
 11 12  1  0  0  0
 11 13  2  0  0  0
 13 14  1  0  0  0
 14 15  2  0  0  0
 15 16  1  0  0  0
 16 17  2  0  0  0
 16  1  1  0  0  0
  8  3  1  0  0  0
 40 37  1  0  0  0
 15  9  1  0  0  0
 27 18  1  0  0  0
 27 22  1  0  0  0
 31 32  1  0  0  0
 31 33  1  0  0  0
M  CHG 1  31   1
M  END
> <minimizedAffinity>
-8.32510

> <CNNscore>
0.3605138063

> <CNNaffinity>
6.4085960388

> <CNN_VS>
2.3103873730

> <CNNaffinity_variance>
0.6652989388

$$$$



 40 45  0  0  0  0  0  0  0  0999 V2000
   -6.0003    2.1744  -23.1376 N   0  0  0  0  0  0  0  0  0  0  0  0
   -6.5772    0.8169  -23.4101 C   0  0  0  0  0  0  0  0  0  0  0  0
   -6.1187    0.0330  -24.6040 C   0  0  0  0  0  0  0  0  0  0  0  0
   -5.7600   -0.8631  -25.7521 C   0  0  0  0  0  0  0  0  0  0  0  0
   -5.0305   -0.8845  -26.7235 O   0  0  0  0  0  0  0  0  0  0  0  0
   -6.5753   -2.1167  -25.6340 N   0  0  0  0  0  0  0  0  0  0  0  0
   -7.4378   -1.9953  -24.4128 C   0  0  0  0  0  0  0  0  0  0  0  0
   -7.1556   -0.6667  -23.7763 C   0  0  0  0  0  0  0  0  0  0  0  0
   -5.0832    0.6067  -25.5253 C   0  0  0  0  0  0  0  0  0  0  0  0
   -4.6247   -0.1772  -26.7191 C   0  0  0  0  0  0  0  0  0  0  0  0
   -3.5893    0.3965  -27.6404 C   0  0  0  0  0  0  0  0  0  0  0  0
   -3.1308   -0.3874  -28.8343 Cl  0  0  0  0  0  0  0  0  0  0  0  0
   -3.0124    1.7540  -27.3678 C   0  0  0  0  0  0  0  0  0  0  0  0
   -3.4709    2.5379  -26.1740 C   0  0  0  0  0  0  0  0  0  0  0  0
   -4.5063    1.9642  -25.2527 C   0  0  0  0  0  0  0  0  0  0  0  0
   -4.9649    2.7481  -24.0588 C   0  0  0  0  0  0  0  0  0  0  0  0
   -4.3879    4.1056  -23.7862 O   0  0  0  0  0  0  0  0  0  0  0  0
   -6.5350   -3.2863  -26.5724 C   0  0  0  0  0  0  0  0  0  0  0  0
   -7.8133   -3.9094  -27.0495 C   0  0  0  0  0  0  0  0  0  0  0  0
   -7.7730   -5.0790  -27.9878 N   0  0  0  0  0  0  0  0  0  0  0  0
   -6.4545   -5.6254  -28.4490 C   0  0  0  0  0  0  0  0  0  0  0  0
   -5.1761   -5.0022  -27.9719 C   0  0  0  0  0  0  0  0  0  0  0  0
   -3.8575   -5.5487  -28.4332 C   0  0  0  0  0  0  0  0  0  0  0  0
   -2.5793   -4.9255  -27.9560 C   0  0  0  0  0  0  0  0  0  0  0  0
   -2.6195   -3.7559  -27.0177 C   0  0  0  0  0  0  0  0  0  0  0  0
   -3.9381   -3.2095  -26.5565 C   0  0  0  0  0  0  0  0  0  0  0  0
   -5.2164   -3.8327  -27.0336 C   0  0  0  0  0  0  0  0  0  0  0  0
   -6.4588    2.9583  -21.9437 C   0  0  0  0  0  0  0  0  0  0  0  0
   -7.4614    4.0614  -22.1107 C   0  0  0  0  0  0  0  0  0  0  0  0
   -6.5167    6.4768  -21.9579 C   0  0  0  0  0  0  0  0  0  0  0  0
   -7.2960    5.3461  -21.3543 N   0  0  0  0  0  0  0  0  0  0  0  0
   -7.7135    5.4509  -20.4296 H   0  0  0  0  0  0  0  0  0  0  0  0
   -7.8259    4.5773  -20.9439 H   0  0  0  0  0  0  0  0  0  0  0  0
   -7.7977   -0.1318  -22.5306 C   0  0  0  0  0  0  0  0  0  0  0  0
   -9.1840    0.4381  -22.5867 O   0  0  0  0  0  0  0  0  0  0  0  0
  -10.0142    0.2708  -23.8247 C   0  0  0  0  0  0  0  0  0  0  0  0
  -11.4396   -0.1835  -23.7162 C   0  0  0  0  0  0  0  0  0  0  0  0
  -12.1448    1.1310  -23.8744 F   0  0  0  0  0  0  0  0  0  0  0  0
  -12.6202   -1.0943  -23.5526 C   0  0  0  0  0  0  0  0  0  0  0  0
  -11.2295   -1.6557  -23.5202 C   0  0  0  0  0  0  0  0  0  0  0  0
 30 31  1  0  0  0
 31 29  1  0  0  0
 29 28  1  0  0  0
 28  1  1  0  0  0
  1  2  1  0  0  0
  3  2  1  0  0  0
  3  4  1  0  0  0
  4  5  2  0  0  0
  4  6  1  0  0  0
  6 18  1  0  0  0
 18 19  2  0  0  0
 19 20  1  0  0  0
 20 21  2  0  0  0
 21 22  1  0  0  0
 22 23  2  0  0  0
 23 24  1  0  0  0
 24 25  2  0  0  0
 25 26  1  0  0  0
 26 27  2  0  0  0
  6  7  1  0  0  0
  7  8  1  0  0  0
  8 34  1  0  0  0
 34 35  1  0  0  0
 35 36  1  0  0  0
 36 37  1  0  0  0
 37 38  1  0  0  0
 37 39  1  0  0  0
 39 40  1  0  0  0
  3  9  1  0  0  0
  9 10  2  0  0  0
 10 11  1  0  0  0
 11 12  1  0  0  0
 11 13  2  0  0  0
 13 14  1  0  0  0
 14 15  2  0  0  0
 15 16  1  0  0  0
 16 17  2  0  0  0
 16  1  1  0  0  0
  8  3  1  0  0  0
 40 37  1  0  0  0
 15  9  1  0  0  0
 27 18  1  0  0  0
 27 22  1  0  0  0
 31 32  1  0  0  0
 31 33  1  0  0  0
M  CHG 1  31   1
M  END
> <minimizedAffinity>
-4.00063

> <CNNscore>
0.3371657133

> <CNNaffinity>
6.3618726730

> <CNN_VS>
2.1450052261

> <CNNaffinity_variance>
1.1941850185

$$$$



 40 45  0  0  0  0  0  0  0  0999 V2000
   -7.1782   -3.1091  -22.4531 N   0  0  0  0  0  0  0  0  0  0  0  0
   -8.1757   -2.2557  -23.1789 C   0  0  0  0  0  0  0  0  0  0  0  0
   -8.0269   -0.7631  -23.1785 C   0  0  0  0  0  0  0  0  0  0  0  0
   -8.0083    0.7342  -23.2657 C   0  0  0  0  0  0  0  0  0  0  0  0
   -7.3477    1.6806  -22.8857 O   0  0  0  0  0  0  0  0  0  0  0  0
   -9.1880    1.1655  -24.0856 N   0  0  0  0  0  0  0  0  0  0  0  0
   -9.9357   -0.0653  -24.5052 C   0  0  0  0  0  0  0  0  0  0  0  0
   -9.2181   -1.2572  -23.9445 C   0  0  0  0  0  0  0  0  0  0  0  0
   -6.8806   -0.1238  -22.4522 C   0  0  0  0  0  0  0  0  0  0  0  0
   -6.7317    1.3687  -22.4518 C   0  0  0  0  0  0  0  0  0  0  0  0
   -5.5855    2.0079  -21.7255 C   0  0  0  0  0  0  0  0  0  0  0  0
   -5.4366    3.5005  -21.7250 Cl  0  0  0  0  0  0  0  0  0  0  0  0
   -4.5880    1.1545  -20.9997 C   0  0  0  0  0  0  0  0  0  0  0  0
   -4.7368   -0.3381  -21.0001 C   0  0  0  0  0  0  0  0  0  0  0  0
   -5.8831   -0.9772  -21.7264 C   0  0  0  0  0  0  0  0  0  0  0  0
   -6.0319   -2.4699  -21.7268 C   0  0  0  0  0  0  0  0  0  0  0  0
   -5.0345   -3.3233  -21.0010 O   0  0  0  0  0  0  0  0  0  0  0  0
   -9.5554    2.5794  -24.4262 C   0  0  0  0  0  0  0  0  0  0  0  0
   -8.6867    3.3777  -25.3525 C   0  0  0  0  0  0  0  0  0  0  0  0
   -9.0541    4.7916  -25.6931 N   0  0  0  0  0  0  0  0  0  0  0  0
  -10.2902    5.4071  -25.1073 C   0  0  0  0  0  0  0  0  0  0  0  0
  -11.1589    4.6088  -24.1810 C   0  0  0  0  0  0  0  0  0  0  0  0
  -12.3951    5.2244  -23.5952 C   0  0  0  0  0  0  0  0  0  0  0  0
  -13.2637    4.4260  -22.6688 C   0  0  0  0  0  0  0  0  0  0  0  0
  -12.8962    3.0121  -22.3283 C   0  0  0  0  0  0  0  0  0  0  0  0
  -11.6601    2.3966  -22.9140 C   0  0  0  0  0  0  0  0  0  0  0  0
  -10.7915    3.1949  -23.8404 C   0  0  0  0  0  0  0  0  0  0  0  0
   -7.3271   -4.6017  -22.4535 C   0  0  0  0  0  0  0  0  0  0  0  0
   -6.7129   -5.4163  -23.5532 C   0  0  0  0  0  0  0  0  0  0  0  0
   -7.1749   -6.7338  -25.7443 C   0  0  0  0  0  0  0  0  0  0  0  0
   -7.5588   -6.3732  -24.3398 N   0  0  0  0  0  0  0  0  0  0  0  0
   -8.3951   -6.7787  -23.9197 H   0  0  0  0  0  0  0  0  0  0  0  0
   -7.8199   -6.1280  -23.3848 H   0  0  0  0  0  0  0  0  0  0  0  0
   -9.6210   -2.6915  -24.1193 C   0  0  0  0  0  0  0  0  0  0  0  0
  -11.0020   -3.1346  -23.7366 O   0  0  0  0  0  0  0  0  0  0  0  0
  -11.6286   -2.6280  -22.4714 C   0  0  0  0  0  0  0  0  0  0  0  0
  -13.0110   -2.0464  -22.4998 C   0  0  0  0  0  0  0  0  0  0  0  0
  -13.7078   -2.9851  -21.5600 F   0  0  0  0  0  0  0  0  0  0  0  0
  -14.1513   -1.1388  -22.8545 C   0  0  0  0  0  0  0  0  0  0  0  0
  -12.7942   -0.9057  -23.4494 C   0  0  0  0  0  0  0  0  0  0  0  0
 30 31  1  0  0  0
 31 29  1  0  0  0
 29 28  1  0  0  0
 28  1  1  0  0  0
  1  2  1  0  0  0
  3  2  1  0  0  0
  3  4  1  0  0  0
  4  5  2  0  0  0
  4  6  1  0  0  0
  6 18  1  0  0  0
 18 19  2  0  0  0
 19 20  1  0  0  0
 20 21  2  0  0  0
 21 22  1  0  0  0
 22 23  2  0  0  0
 23 24  1  0  0  0
 24 25  2  0  0  0
 25 26  1  0  0  0
 26 27  2  0  0  0
  6  7  1  0  0  0
  7  8  1  0  0  0
  8 34  1  0  0  0
 34 35  1  0  0  0
 35 36  1  0  0  0
 36 37  1  0  0  0
 37 38  1  0  0  0
 37 39  1  0  0  0
 39 40  1  0  0  0
  3  9  1  0  0  0
  9 10  2  0  0  0
 10 11  1  0  0  0
 11 12  1  0  0  0
 11 13  2  0  0  0
 13 14  1  0  0  0
 14 15  2  0  0  0
 15 16  1  0  0  0
 16 17  2  0  0  0
 16  1  1  0  0  0
  8  3  1  0  0  0
 40 37  1  0  0  0
 15  9  1  0  0  0
 27 18  1  0  0  0
 27 22  1  0  0  0
 31 32  1  0  0  0
 31 33  1  0  0  0
M  CHG 1  31   1
M  END
> <minimizedAffinity>
-6.94296

> <CNNscore>
0.2763136029

> <CNNaffinity>
6.4653511047

> <CNN_VS>
1.7864644527

> <CNNaffinity_variance>
0.5995757580

$$$$



 40 45  0  0  0  0  0  0  0  0999 V2000
   -7.2472   -4.4209  -22.5146 N   0  0  0  0  0  0  0  0  0  0  0  0
   -8.1651   -3.5225  -23.2895 C   0  0  0  0  0  0  0  0  0  0  0  0
   -7.9978   -2.0339  -23.2137 C   0  0  0  0  0  0  0  0  0  0  0  0
   -7.9523   -0.5347  -23.2364 C   0  0  0  0  0  0  0  0  0  0  0  0
   -7.3161    0.3845  -22.7604 O   0  0  0  0  0  0  0  0  0  0  0  0
   -9.0488   -0.0513  -24.1387 N   0  0  0  0  0  0  0  0  0  0  0  0
   -9.7719   -1.2517  -24.6737 C   0  0  0  0  0  0  0  0  0  0  0  0
   -9.1224   -2.4769  -24.1020 C   0  0  0  0  0  0  0  0  0  0  0  0
   -6.9126   -1.4434  -22.3630 C   0  0  0  0  0  0  0  0  0  0  0  0
   -6.7453    0.0453  -22.2872 C   0  0  0  0  0  0  0  0  0  0  0  0
   -5.6601    0.6356  -21.4364 C   0  0  0  0  0  0  0  0  0  0  0  0
   -5.4927    2.1244  -21.3606 Cl  0  0  0  0  0  0  0  0  0  0  0  0
   -4.7422   -0.2627  -20.6615 C   0  0  0  0  0  0  0  0  0  0  0  0
   -4.9095   -1.7514  -20.7373 C   0  0  0  0  0  0  0  0  0  0  0  0
   -5.9947   -2.3417  -21.5881 C   0  0  0  0  0  0  0  0  0  0  0  0
   -6.1620   -3.8305  -21.6639 C   0  0  0  0  0  0  0  0  0  0  0  0
   -5.2441   -4.7288  -20.8890 O   0  0  0  0  0  0  0  0  0  0  0  0
   -9.3663    1.3810  -24.4512 C   0  0  0  0  0  0  0  0  0  0  0  0
   -8.3249    2.2608  -25.0769 C   0  0  0  0  0  0  0  0  0  0  0  0
   -8.6424    3.6932  -25.3894 N   0  0  0  0  0  0  0  0  0  0  0  0
  -10.0013    4.2457  -25.0761 C   0  0  0  0  0  0  0  0  0  0  0  0
  -11.0427    3.3659  -24.4504 C   0  0  0  0  0  0  0  0  0  0  0  0
  -12.4016    3.9184  -24.1372 C   0  0  0  0  0  0  0  0  0  0  0  0
  -13.4429    3.0385  -23.5114 C   0  0  0  0  0  0  0  0  0  0  0  0
  -13.1254    1.6062  -23.1990 C   0  0  0  0  0  0  0  0  0  0  0  0
  -11.7665    1.0537  -23.5122 C   0  0  0  0  0  0  0  0  0  0  0  0
  -10.7251    1.9335  -24.1380 C   0  0  0  0  0  0  0  0  0  0  0  0
   -7.4146   -5.9096  -22.5905 C   0  0  0  0  0  0  0  0  0  0  0  0
   -6.4883   -6.8083  -21.8260 C   0  0  0  0  0  0  0  0  0  0  0  0
   -5.0446   -7.1927  -23.9515 C   0  0  0  0  0  0  0  0  0  0  0  0
   -5.2259   -7.3040  -22.4667 N   0  0  0  0  0  0  0  0  0  0  0  0
   -4.4907   -7.7167  -21.8927 H   0  0  0  0  0  0  0  0  0  0  0  0
   -5.3492   -7.3797  -21.4570 H   0  0  0  0  0  0  0  0  0  0  0  0
   -9.5265   -3.8961  -24.3713 C   0  0  0  0  0  0  0  0  0  0  0  0
  -10.2145   -4.2491  -25.6566 O   0  0  0  0  0  0  0  0  0  0  0  0
  -10.1457   -5.6518  -26.1836 C   0  0  0  0  0  0  0  0  0  0  0  0
   -9.4019   -5.9401  -27.4539 C   0  0  0  0  0  0  0  0  0  0  0  0
   -9.9933   -4.8894  -28.3462 F   0  0  0  0  0  0  0  0  0  0  0  0
   -8.4527   -6.5934  -28.4142 C   0  0  0  0  0  0  0  0  0  0  0  0
   -8.5522   -7.0910  -27.0027 C   0  0  0  0  0  0  0  0  0  0  0  0
 30 31  1  0  0  0
 31 29  1  0  0  0
 29 28  1  0  0  0
 28  1  1  0  0  0
  1  2  1  0  0  0
  3  2  1  0  0  0
  3  4  1  0  0  0
  4  5  2  0  0  0
  4  6  1  0  0  0
  6 18  1  0  0  0
 18 19  2  0  0  0
 19 20  1  0  0  0
 20 21  2  0  0  0
 21 22  1  0  0  0
 22 23  2  0  0  0
 23 24  1  0  0  0
 24 25  2  0  0  0
 25 26  1  0  0  0
 26 27  2  0  0  0
  6  7  1  0  0  0
  7  8  1  0  0  0
  8 34  1  0  0  0
 34 35  1  0  0  0
 35 36  1  0  0  0
 36 37  1  0  0  0
 37 38  1  0  0  0
 37 39  1  0  0  0
 39 40  1  0  0  0
  3  9  1  0  0  0
  9 10  2  0  0  0
 10 11  1  0  0  0
 11 12  1  0  0  0
 11 13  2  0  0  0
 13 14  1  0  0  0
 14 15  2  0  0  0
 15 16  1  0  0  0
 16 17  2  0  0  0
 16  1  1  0  0  0
  8  3  1  0  0  0
 40 37  1  0  0  0
 15  9  1  0  0  0
 27 18  1  0  0  0
 27 22  1  0  0  0
 31 32  1  0  0  0
 31 33  1  0  0  0
M  CHG 1  31   1
M  END
> <minimizedAffinity>
-7.48165

> <CNNscore>
0.2753563523

> <CNNaffinity>
6.3921747208

> <CNN_VS>
1.7601258755

> <CNNaffinity_variance>
0.3773722053

$$$$



 40 45  0  0  0  0  0  0  0  0999 V2000
  -11.5806    3.8844  -24.2740 N   0  0  0  0  0  0  0  0  0  0  0  0
  -10.2055    3.2891  -24.2050 C   0  0  0  0  0  0  0  0  0  0  0  0
  -10.0332    1.8355  -23.8774 C   0  0  0  0  0  0  0  0  0  0  0  0
   -9.7062    0.4057  -23.5631 C   0  0  0  0  0  0  0  0  0  0  0  0
  -10.2646   -0.6392  -23.2936 O   0  0  0  0  0  0  0  0  0  0  0  0
   -8.2147    0.2519  -23.6020 N   0  0  0  0  0  0  0  0  0  0  0  0
   -7.6197    1.5867  -23.9404 C   0  0  0  0  0  0  0  0  0  0  0  0
   -8.7437    2.5653  -24.1106 C   0  0  0  0  0  0  0  0  0  0  0  0
  -11.2360    0.9772  -23.6189 C   0  0  0  0  0  0  0  0  0  0  0  0
  -11.0637   -0.4764  -23.2913 C   0  0  0  0  0  0  0  0  0  0  0  0
  -12.2664   -1.3346  -23.0328 C   0  0  0  0  0  0  0  0  0  0  0  0
  -12.0941   -2.7883  -22.7052 Cl  0  0  0  0  0  0  0  0  0  0  0  0
  -13.6414   -0.7392  -23.1018 C   0  0  0  0  0  0  0  0  0  0  0  0
  -13.8137    0.7144  -23.4294 C   0  0  0  0  0  0  0  0  0  0  0  0
  -12.6110    1.5726  -23.6879 C   0  0  0  0  0  0  0  0  0  0  0  0
  -12.7833    3.0262  -24.0155 C   0  0  0  0  0  0  0  0  0  0  0  0
  -14.1584    3.6216  -24.0845 O   0  0  0  0  0  0  0  0  0  0  0  0
   -7.4519   -1.0143  -23.3473 C   0  0  0  0  0  0  0  0  0  0  0  0
   -7.2712   -2.0157  -24.4494 C   0  0  0  0  0  0  0  0  0  0  0  0
   -6.5084   -3.2819  -24.1946 N   0  0  0  0  0  0  0  0  0  0  0  0
   -5.9265   -3.5468  -22.8378 C   0  0  0  0  0  0  0  0  0  0  0  0
   -6.1073   -2.5454  -21.7356 C   0  0  0  0  0  0  0  0  0  0  0  0
   -5.5253   -2.8104  -20.3787 C   0  0  0  0  0  0  0  0  0  0  0  0
   -5.7061   -1.8090  -19.2766 C   0  0  0  0  0  0  0  0  0  0  0  0
   -6.4688   -0.5428  -19.5314 C   0  0  0  0  0  0  0  0  0  0  0  0
   -7.0508   -0.2779  -20.8883 C   0  0  0  0  0  0  0  0  0  0  0  0
   -6.8700   -1.2792  -21.9904 C   0  0  0  0  0  0  0  0  0  0  0  0
  -11.7529    5.3381  -24.6016 C   0  0  0  0  0  0  0  0  0  0  0  0
  -13.0377    6.0355  -24.2655 C   0  0  0  0  0  0  0  0  0  0  0  0
  -13.6244    6.1784  -26.7924 C   0  0  0  0  0  0  0  0  0  0  0  0
  -13.9930    6.4151  -25.3578 N   0  0  0  0  0  0  0  0  0  0  0  0
  -14.8933    6.8343  -25.1250 H   0  0  0  0  0  0  0  0  0  0  0  0
  -14.2437    6.5761  -24.3823 H   0  0  0  0  0  0  0  0  0  0  0  0
   -8.6028    4.0187  -24.4538 C   0  0  0  0  0  0  0  0  0  0  0  0
   -7.2479    4.6623  -24.4501 O   0  0  0  0  0  0  0  0  0  0  0  0
   -6.6174    5.0757  -23.1534 C   0  0  0  0  0  0  0  0  0  0  0  0
   -5.4691    4.2896  -22.5936 C   0  0  0  0  0  0  0  0  0  0  0  0
   -6.2087    3.3753  -21.6624 F   0  0  0  0  0  0  0  0  0  0  0  0
   -4.0638    3.8211  -22.3572 C   0  0  0  0  0  0  0  0  0  0  0  0
   -4.3307    4.9310  -23.3303 C   0  0  0  0  0  0  0  0  0  0  0  0
 30 31  1  0  0  0
 31 29  1  0  0  0
 29 28  1  0  0  0
 28  1  1  0  0  0
  1  2  1  0  0  0
  3  2  1  0  0  0
  3  4  1  0  0  0
  4  5  2  0  0  0
  4  6  1  0  0  0
  6 18  1  0  0  0
 18 19  2  0  0  0
 19 20  1  0  0  0
 20 21  2  0  0  0
 21 22  1  0  0  0
 22 23  2  0  0  0
 23 24  1  0  0  0
 24 25  2  0  0  0
 25 26  1  0  0  0
 26 27  2  0  0  0
  6  7  1  0  0  0
  7  8  1  0  0  0
  8 34  1  0  0  0
 34 35  1  0  0  0
 35 36  1  0  0  0
 36 37  1  0  0  0
 37 38  1  0  0  0
 37 39  1  0  0  0
 39 40  1  0  0  0
  3  9  1  0  0  0
  9 10  2  0  0  0
 10 11  1  0  0  0
 11 12  1  0  0  0
 11 13  2  0  0  0
 13 14  1  0  0  0
 14 15  2  0  0  0
 15 16  1  0  0  0
 16 17  2  0  0  0
 16  1  1  0  0  0
  8  3  1  0  0  0
 40 37  1  0  0  0
 15  9  1  0  0  0
 27 18  1  0  0  0
 27 22  1  0  0  0
 31 32  1  0  0  0
 31 33  1  0  0  0
M  CHG 1  31   1
M  END
> <minimizedAffinity>
-7.30260

> <CNNscore>
0.2245604694

> <CNNaffinity>
6.3976616859

> <CNN_VS>
1.4366619587

> <CNNaffinity_variance>
0.2346036434

$$$$
