


 40 45  0  0  0  0  0  0  0  0999 V2000
   10.4949    0.7207   23.5640 N   0  0  0  0  0  0  0  0  0  0  0  0
    9.0891    0.3015   23.8768 C   0  0  0  0  0  0  0  0  0  0  0  0
    8.8387   -0.9112   24.7231 C   0  0  0  0  0  0  0  0  0  0  0  0
    8.4352   -2.0948   25.5516 C   0  0  0  0  0  0  0  0  0  0  0  0
    8.9369   -3.0073   26.1777 O   0  0  0  0  0  0  0  0  0  0  0  0
    6.9366   -2.1355   25.6028 N   0  0  0  0  0  0  0  0  0  0  0  0
    6.4139   -0.9771   24.8060 C   0  0  0  0  0  0  0  0  0  0  0  0
    7.5895   -0.2204   24.2624 C   0  0  0  0  0  0  0  0  0  0  0  0
    9.9943   -1.7050   25.2568 C   0  0  0  0  0  0  0  0  0  0  0  0
    9.7440   -2.9178   26.1032 C   0  0  0  0  0  0  0  0  0  0  0  0
   10.8995   -3.7114   26.6368 C   0  0  0  0  0  0  0  0  0  0  0  0
   10.6492   -4.9243   27.4833 Cl  0  0  0  0  0  0  0  0  0  0  0  0
   12.3054   -3.2922   26.3241 C   0  0  0  0  0  0  0  0  0  0  0  0
   12.5557   -2.0794   25.4777 C   0  0  0  0  0  0  0  0  0  0  0  0
   11.4002   -1.2858   24.9441 C   0  0  0  0  0  0  0  0  0  0  0  0
   11.6505   -0.0729   24.0976 C   0  0  0  0  0  0  0  0  0  0  0  0
   13.0564    0.3462   23.7849 O   0  0  0  0  0  0  0  0  0  0  0  0
    6.1064   -3.1556   26.3241 C   0  0  0  0  0  0  0  0  0  0  0  0
    5.7243   -4.4332   25.6373 C   0  0  0  0  0  0  0  0  0  0  0  0
    4.8942   -5.4532   26.3587 N   0  0  0  0  0  0  0  0  0  0  0  0
    4.4461   -5.1956   27.7668 C   0  0  0  0  0  0  0  0  0  0  0  0
    4.8283   -3.9180   28.4536 C   0  0  0  0  0  0  0  0  0  0  0  0
    4.3802   -3.6604   29.8619 C   0  0  0  0  0  0  0  0  0  0  0  0
    4.7624   -2.3828   30.5486 C   0  0  0  0  0  0  0  0  0  0  0  0
    5.5925   -1.3627   29.8272 C   0  0  0  0  0  0  0  0  0  0  0  0
    6.0406   -1.6203   28.4191 C   0  0  0  0  0  0  0  0  0  0  0  0
    5.6584   -2.8980   27.7323 C   0  0  0  0  0  0  0  0  0  0  0  0
   10.7452    1.9336   22.7176 C   0  0  0  0  0  0  0  0  0  0  0  0
   11.9450    2.7954   22.9782 C   0  0  0  0  0  0  0  0  0  0  0  0
   11.2629    5.3023   22.9841 C   0  0  0  0  0  0  0  0  0  0  0  0
   11.7892    4.0975   23.7062 N   0  0  0  0  0  0  0  0  0  0  0  0
   12.0412    4.1637   24.6924 H   0  0  0  0  0  0  0  0  0  0  0  0
   12.1471    3.2783   24.1973 H   0  0  0  0  0  0  0  0  0  0  0  0
    7.5269    1.0108   23.4080 C   0  0  0  0  0  0  0  0  0  0  0  0
    6.1990    1.6146   23.0586 O   0  0  0  0  0  0  0  0  0  0  0  0
    6.0237    2.3391   21.7569 C   0  0  0  0  0  0  0  0  0  0  0  0
    5.9873    3.8385   21.7322 C   0  0  0  0  0  0  0  0  0  0  0  0
    7.3321    4.1414   22.3238 F   0  0  0  0  0  0  0  0  0  0  0  0
    5.4840    5.2326   21.5019 C   0  0  0  0  0  0  0  0  0  0  0  0
    4.6300    4.0562   21.1320 C   0  0  0  0  0  0  0  0  0  0  0  0
 30 31  1  0  0  0
 31 29  1  0  0  0
 29 28  1  0  0  0
 28  1  1  0  0  0
  1  2  1  0  0  0
  3  2  1  0  0  0
  3  4  1  0  0  0
  4  5  2  0  0  0
  4  6  1  0  0  0
  6 18  1  0  0  0
 18 19  2  0  0  0
 19 20  1  0  0  0
 20 21  2  0  0  0
 21 22  1  0  0  0
 22 23  2  0  0  0
 23 24  1  0  0  0
 24 25  2  0  0  0
 25 26  1  0  0  0
 26 27  2  0  0  0
  6  7  1  0  0  0
  7  8  1  0  0  0
  8 34  1  0  0  0
 34 35  1  0  0  0
 35 36  1  0  0  0
 36 37  1  0  0  0
 37 38  1  0  0  0
 37 39  1  0  0  0
 39 40  1  0  0  0
  3  9  1  0  0  0
  9 10  2  0  0  0
 10 11  1  0  0  0
 11 12  1  0  0  0
 11 13  2  0  0  0
 13 14  1  0  0  0
 14 15  2  0  0  0
 15 16  1  0  0  0
 16 17  2  0  0  0
 16  1  1  0  0  0
  8  3  1  0  0  0
 40 37  1  0  0  0
 15  9  1  0  0  0
 27 18  1  0  0  0
 27 22  1  0  0  0
 31 32  1  0  0  0
 31 33  1  0  0  0
M  CHG 1  31   1
M  END
> <minimizedAffinity>
-7.37117

> <CNNscore>
0.3599680960

> <CNNaffinity>
6.6780900955

> <CNN_VS>
2.4038994312

> <CNNaffinity_variance>
0.1702649146

$$$$



 40 45  0  0  0  0  0  0  0  0999 V2000
    5.6739    3.8847   22.7748 N   0  0  0  0  0  0  0  0  0  0  0  0
    6.4530    2.6087   22.6524 C   0  0  0  0  0  0  0  0  0  0  0  0
    6.8366    1.8431   23.8839 C   0  0  0  0  0  0  0  0  0  0  0  0
    7.2890    0.9739   25.0196 C   0  0  0  0  0  0  0  0  0  0  0  0
    7.2395    0.9269   26.2328 O   0  0  0  0  0  0  0  0  0  0  0  0
    8.0320   -0.1941   24.4420 N   0  0  0  0  0  0  0  0  0  0  0  0
    8.0388   -0.0468   22.9493 C   0  0  0  0  0  0  0  0  0  0  0  0
    7.3000    1.2123   22.6044 C   0  0  0  0  0  0  0  0  0  0  0  0
    6.4412    2.3535   25.2379 C   0  0  0  0  0  0  0  0  0  0  0  0
    6.8248    1.5880   26.4694 C   0  0  0  0  0  0  0  0  0  0  0  0
    6.4293    2.0984   27.8233 C   0  0  0  0  0  0  0  0  0  0  0  0
    6.8130    1.3328   29.0550 Cl  0  0  0  0  0  0  0  0  0  0  0  0
    5.6503    3.3744   27.9457 C   0  0  0  0  0  0  0  0  0  0  0  0
    5.2667    4.1400   26.7142 C   0  0  0  0  0  0  0  0  0  0  0  0
    5.6621    3.6295   25.3603 C   0  0  0  0  0  0  0  0  0  0  0  0
    5.2785    4.3951   24.1287 C   0  0  0  0  0  0  0  0  0  0  0  0
    4.4995    5.6711   24.2510 O   0  0  0  0  0  0  0  0  0  0  0  0
    8.6582   -1.3130   25.2204 C   0  0  0  0  0  0  0  0  0  0  0  0
    7.7916   -2.2927   25.9547 C   0  0  0  0  0  0  0  0  0  0  0  0
    8.4178   -3.4116   26.7331 N   0  0  0  0  0  0  0  0  0  0  0  0
    9.9106   -3.5507   26.7773 C   0  0  0  0  0  0  0  0  0  0  0  0
   10.7773   -2.5710   26.0430 C   0  0  0  0  0  0  0  0  0  0  0  0
   12.2702   -2.7102   26.0873 C   0  0  0  0  0  0  0  0  0  0  0  0
   13.1368   -1.7304   25.3530 C   0  0  0  0  0  0  0  0  0  0  0  0
   12.5105   -0.6115   24.5745 C   0  0  0  0  0  0  0  0  0  0  0  0
   11.0177   -0.4724   24.5304 C   0  0  0  0  0  0  0  0  0  0  0  0
   10.1511   -1.4521   25.2646 C   0  0  0  0  0  0  0  0  0  0  0  0
    5.2903    4.6503   21.5432 C   0  0  0  0  0  0  0  0  0  0  0  0
    6.0460    5.8895   21.1647 C   0  0  0  0  0  0  0  0  0  0  0  0
    7.6706    7.0288   22.8417 C   0  0  0  0  0  0  0  0  0  0  0  0
    6.3199    6.9449   22.1948 N   0  0  0  0  0  0  0  0  0  0  0  0
    5.5877    7.6055   22.4554 H   0  0  0  0  0  0  0  0  0  0  0  0
    5.4014    6.8878   21.7549 H   0  0  0  0  0  0  0  0  0  0  0  0
    7.0658    1.7467   21.2225 C   0  0  0  0  0  0  0  0  0  0  0  0
    6.8909    0.8003   20.0720 O   0  0  0  0  0  0  0  0  0  0  0  0
    5.5283    0.2695   19.7379 C   0  0  0  0  0  0  0  0  0  0  0  0
    4.5121    1.1647   19.0929 C   0  0  0  0  0  0  0  0  0  0  0  0
    5.0125    1.1506   17.6789 F   0  0  0  0  0  0  0  0  0  0  0  0
    3.3221    2.0649   18.9391 C   0  0  0  0  0  0  0  0  0  0  0  0
    3.6587    1.4898   20.2830 C   0  0  0  0  0  0  0  0  0  0  0  0
 30 31  1  0  0  0
 31 29  1  0  0  0
 29 28  1  0  0  0
 28  1  1  0  0  0
  1  2  1  0  0  0
  3  2  1  0  0  0
  3  4  1  0  0  0
  4  5  2  0  0  0
  4  6  1  0  0  0
  6 18  1  0  0  0
 18 19  2  0  0  0
 19 20  1  0  0  0
 20 21  2  0  0  0
 21 22  1  0  0  0
 22 23  2  0  0  0
 23 24  1  0  0  0
 24 25  2  0  0  0
 25 26  1  0  0  0
 26 27  2  0  0  0
  6  7  1  0  0  0
  7  8  1  0  0  0
  8 34  1  0  0  0
 34 35  1  0  0  0
 35 36  1  0  0  0
 36 37  1  0  0  0
 37 38  1  0  0  0
 37 39  1  0  0  0
 39 40  1  0  0  0
  3  9  1  0  0  0
  9 10  2  0  0  0
 10 11  1  0  0  0
 11 12  1  0  0  0
 11 13  2  0  0  0
 13 14  1  0  0  0
 14 15  2  0  0  0
 15 16  1  0  0  0
 16 17  2  0  0  0
 16  1  1  0  0  0
  8  3  1  0  0  0
 40 37  1  0  0  0
 15  9  1  0  0  0
 27 18  1  0  0  0
 27 22  1  0  0  0
 31 32  1  0  0  0
 31 33  1  0  0  0
M  CHG 1  31   1
M  END
> <minimizedAffinity>
-7.12266

> <CNNscore>
0.3396574855

> <CNNaffinity>
6.4288167953

> <CNN_VS>
2.1835956573

> <CNNaffinity_variance>
0.0508726835

$$$$



 40 45  0  0  0  0  0  0  0  0999 V2000
   10.4969    0.7436   23.5060 N   0  0  0  0  0  0  0  0  0  0  0  0
    9.1041    0.3696   23.9186 C   0  0  0  0  0  0  0  0  0  0  0  0
    8.8801   -0.8041   24.8253 C   0  0  0  0  0  0  0  0  0  0  0  0
    8.5028   -1.9456   25.7222 C   0  0  0  0  0  0  0  0  0  0  0  0
    9.0222   -2.8452   26.3525 O   0  0  0  0  0  0  0  0  0  0  0  0
    7.0096   -1.9492   25.8647 N   0  0  0  0  0  0  0  0  0  0  0  0
    6.4640   -0.8098   25.0559 C   0  0  0  0  0  0  0  0  0  0  0  0
    7.6201   -0.1021   24.4136 C   0  0  0  0  0  0  0  0  0  0  0  0
   10.0490   -1.6039   25.3195 C   0  0  0  0  0  0  0  0  0  0  0  0
    9.8250   -2.7776   26.2262 C   0  0  0  0  0  0  0  0  0  0  0  0
   10.9938   -3.5774   26.7203 C   0  0  0  0  0  0  0  0  0  0  0  0
   10.7699   -4.7511   27.6271 Cl  0  0  0  0  0  0  0  0  0  0  0  0
   12.3866   -3.2034   26.3077 C   0  0  0  0  0  0  0  0  0  0  0  0
   12.6106   -2.0298   25.4009 C   0  0  0  0  0  0  0  0  0  0  0  0
   11.4418   -1.2300   24.9068 C   0  0  0  0  0  0  0  0  0  0  0  0
   11.6657   -0.0562   24.0000 C   0  0  0  0  0  0  0  0  0  0  0  0
   13.0585    0.3177   23.5874 O   0  0  0  0  0  0  0  0  0  0  0  0
    6.2034   -2.9214   26.6740 C   0  0  0  0  0  0  0  0  0  0  0  0
    6.0441   -2.7168   28.1514 C   0  0  0  0  0  0  0  0  0  0  0  0
    5.2380   -3.6890   28.9606 N   0  0  0  0  0  0  0  0  0  0  0  0
    4.5912   -4.8659   28.2925 C   0  0  0  0  0  0  0  0  0  0  0  0
    4.7505   -5.0706   26.8150 C   0  0  0  0  0  0  0  0  0  0  0  0
    4.1037   -6.2476   26.1468 C   0  0  0  0  0  0  0  0  0  0  0  0
    4.2631   -6.4522   24.6694 C   0  0  0  0  0  0  0  0  0  0  0  0
    5.0692   -5.4799   23.8602 C   0  0  0  0  0  0  0  0  0  0  0  0
    5.7160   -4.3030   24.5284 C   0  0  0  0  0  0  0  0  0  0  0  0
    5.5566   -4.0984   26.0058 C   0  0  0  0  0  0  0  0  0  0  0  0
   10.7209    1.9173   22.5992 C   0  0  0  0  0  0  0  0  0  0  0  0
   10.1896    3.2685   22.9763 C   0  0  0  0  0  0  0  0  0  0  0  0
   12.3281    4.4753   22.1277 C   0  0  0  0  0  0  0  0  0  0  0  0
   11.1063    4.4556   22.9975 N   0  0  0  0  0  0  0  0  0  0  0  0
   10.8987    5.2494   23.6035 H   0  0  0  0  0  0  0  0  0  0  0  0
   10.2754    4.4421   23.5890 H   0  0  0  0  0  0  0  0  0  0  0  0
    7.5317    1.0971   23.5169 C   0  0  0  0  0  0  0  0  0  0  0  0
    6.2078    1.7619   23.2818 O   0  0  0  0  0  0  0  0  0  0  0  0
    5.9839    3.1716   23.7431 C   0  0  0  0  0  0  0  0  0  0  0  0
    5.8344    4.2748   22.7379 C   0  0  0  0  0  0  0  0  0  0  0  0
    6.1823    5.4563   23.5942 F   0  0  0  0  0  0  0  0  0  0  0  0
    5.5641    4.9678   21.4353 C   0  0  0  0  0  0  0  0  0  0  0  0
    5.4346    3.4765   21.5326 C   0  0  0  0  0  0  0  0  0  0  0  0
 30 31  1  0  0  0
 31 29  1  0  0  0
 29 28  1  0  0  0
 28  1  1  0  0  0
  1  2  1  0  0  0
  3  2  1  0  0  0
  3  4  1  0  0  0
  4  5  2  0  0  0
  4  6  1  0  0  0
  6 18  1  0  0  0
 18 19  2  0  0  0
 19 20  1  0  0  0
 20 21  2  0  0  0
 21 22  1  0  0  0
 22 23  2  0  0  0
 23 24  1  0  0  0
 24 25  2  0  0  0
 25 26  1  0  0  0
 26 27  2  0  0  0
  6  7  1  0  0  0
  7  8  1  0  0  0
  8 34  1  0  0  0
 34 35  1  0  0  0
 35 36  1  0  0  0
 36 37  1  0  0  0
 37 38  1  0  0  0
 37 39  1  0  0  0
 39 40  1  0  0  0
  3  9  1  0  0  0
  9 10  2  0  0  0
 10 11  1  0  0  0
 11 12  1  0  0  0
 11 13  2  0  0  0
 13 14  1  0  0  0
 14 15  2  0  0  0
 15 16  1  0  0  0
 16 17  2  0  0  0
 16  1  1  0  0  0
  8  3  1  0  0  0
 40 37  1  0  0  0
 15  9  1  0  0  0
 27 18  1  0  0  0
 27 22  1  0  0  0
 31 32  1  0  0  0
 31 33  1  0  0  0
M  CHG 1  31   1
M  END
> <minimizedAffinity>
-7.32576

> <CNNscore>
0.2958289385

> <CNNaffinity>
6.6026239395

> <CNN_VS>
1.9532471895

> <CNNaffinity_variance>
0.2897493243

$$$$



 40 45  0  0  0  0  0  0  0  0999 V2000
    9.6574    0.7423   22.7069 N   0  0  0  0  0  0  0  0  0  0  0  0
    8.5369   -0.2454   22.5688 C   0  0  0  0  0  0  0  0  0  0  0  0
    8.5798   -1.5390   23.3268 C   0  0  0  0  0  0  0  0  0  0  0  0
    8.4846   -2.8667   24.0183 C   0  0  0  0  0  0  0  0  0  0  0  0
    9.1106   -3.5572   24.7979 O   0  0  0  0  0  0  0  0  0  0  0  0
    7.2038   -3.5206   23.5919 N   0  0  0  0  0  0  0  0  0  0  0  0
    6.5073   -2.5971   22.6369 C   0  0  0  0  0  0  0  0  0  0  0  0
    7.3578   -1.3724   22.4731 C   0  0  0  0  0  0  0  0  0  0  0  0
    9.7432   -1.8450   24.2230 C   0  0  0  0  0  0  0  0  0  0  0  0
    9.7860   -3.1386   24.9810 C   0  0  0  0  0  0  0  0  0  0  0  0
   10.9493   -3.4445   25.8771 C   0  0  0  0  0  0  0  0  0  0  0  0
   10.9923   -4.7382   26.6352 Cl  0  0  0  0  0  0  0  0  0  0  0  0
   12.0698   -2.4568   26.0152 C   0  0  0  0  0  0  0  0  0  0  0  0
   12.0269   -1.1632   25.2572 C   0  0  0  0  0  0  0  0  0  0  0  0
   10.8636   -0.8573   24.3611 C   0  0  0  0  0  0  0  0  0  0  0  0
   10.8207    0.4364   23.6030 C   0  0  0  0  0  0  0  0  0  0  0  0
   11.9412    1.4241   23.7410 O   0  0  0  0  0  0  0  0  0  0  0  0
    6.7067   -4.8625   24.0416 C   0  0  0  0  0  0  0  0  0  0  0  0
    7.2443   -6.1120   23.4093 C   0  0  0  0  0  0  0  0  0  0  0  0
    6.7472   -7.4539   23.8590 N   0  0  0  0  0  0  0  0  0  0  0  0
    5.7125   -7.5463   24.9410 C   0  0  0  0  0  0  0  0  0  0  0  0
    5.1748   -6.2968   25.5732 C   0  0  0  0  0  0  0  0  0  0  0  0
    4.1399   -6.3893   26.6553 C   0  0  0  0  0  0  0  0  0  0  0  0
    3.6023   -5.1398   27.2875 C   0  0  0  0  0  0  0  0  0  0  0  0
    4.0994   -3.7979   26.8378 C   0  0  0  0  0  0  0  0  0  0  0  0
    5.1342   -3.7055   25.7558 C   0  0  0  0  0  0  0  0  0  0  0  0
    5.6719   -4.9550   25.1235 C   0  0  0  0  0  0  0  0  0  0  0  0
    9.6145    2.0360   21.9488 C   0  0  0  0  0  0  0  0  0  0  0  0
   10.2228    3.2727   22.5408 C   0  0  0  0  0  0  0  0  0  0  0  0
   11.7759    5.3337   22.2405 C   0  0  0  0  0  0  0  0  0  0  0  0
   11.3839    3.9363   21.8615 N   0  0  0  0  0  0  0  0  0  0  0  0
   11.9070    3.4374   21.1419 H   0  0  0  0  0  0  0  0  0  0  0  0
   11.1174    2.9861   21.6038 H   0  0  0  0  0  0  0  0  0  0  0  0
    7.0417   -0.1889   21.6074 C   0  0  0  0  0  0  0  0  0  0  0  0
    6.9004   -0.3609   20.1241 O   0  0  0  0  0  0  0  0  0  0  0  0
    5.5458   -0.5880   19.5210 C   0  0  0  0  0  0  0  0  0  0  0  0
    4.8121    0.5498   18.8752 C   0  0  0  0  0  0  0  0  0  0  0  0
    5.1522    0.2960   17.4365 F   0  0  0  0  0  0  0  0  0  0  0  0
    3.9602    1.7758   18.7292 C   0  0  0  0  0  0  0  0  0  0  0  0
    4.2172    1.1988   20.0897 C   0  0  0  0  0  0  0  0  0  0  0  0
 30 31  1  0  0  0
 31 29  1  0  0  0
 29 28  1  0  0  0
 28  1  1  0  0  0
  1  2  1  0  0  0
  3  2  1  0  0  0
  3  4  1  0  0  0
  4  5  2  0  0  0
  4  6  1  0  0  0
  6 18  1  0  0  0
 18 19  2  0  0  0
 19 20  1  0  0  0
 20 21  2  0  0  0
 21 22  1  0  0  0
 22 23  2  0  0  0
 23 24  1  0  0  0
 24 25  2  0  0  0
 25 26  1  0  0  0
 26 27  2  0  0  0
  6  7  1  0  0  0
  7  8  1  0  0  0
  8 34  1  0  0  0
 34 35  1  0  0  0
 35 36  1  0  0  0
 36 37  1  0  0  0
 37 38  1  0  0  0
 37 39  1  0  0  0
 39 40  1  0  0  0
  3  9  1  0  0  0
  9 10  2  0  0  0
 10 11  1  0  0  0
 11 12  1  0  0  0
 11 13  2  0  0  0
 13 14  1  0  0  0
 14 15  2  0  0  0
 15 16  1  0  0  0
 16 17  2  0  0  0
 16  1  1  0  0  0
  8  3  1  0  0  0
 40 37  1  0  0  0
 15  9  1  0  0  0
 27 18  1  0  0  0
 27 22  1  0  0  0
 31 32  1  0  0  0
 31 33  1  0  0  0
M  CHG 1  31   1
M  END
> <minimizedAffinity>
-8.64490

> <CNNscore>
0.2846834362

> <CNNaffinity>
6.8513717651

> <CNN_VS>
1.9504719973

> <CNNaffinity_variance>
0.0819702595

$$$$



 40 45  0  0  0  0  0  0  0  0999 V2000
   10.5321    0.4997   23.2065 N   0  0  0  0  0  0  0  0  0  0  0  0
    9.1377   -0.0290   23.3683 C   0  0  0  0  0  0  0  0  0  0  0  0
    8.8839   -1.2194   24.2448 C   0  0  0  0  0  0  0  0  0  0  0  0
    8.4785   -2.3953   25.0832 C   0  0  0  0  0  0  0  0  0  0  0  0
    8.9711   -3.2297   25.8164 O   0  0  0  0  0  0  0  0  0  0  0  0
    6.9941   -2.5676   24.9532 N   0  0  0  0  0  0  0  0  0  0  0  0
    6.4821   -1.4981   24.0345 C   0  0  0  0  0  0  0  0  0  0  0  0
    7.6500   -0.6649   23.5967 C   0  0  0  0  0  0  0  0  0  0  0  0
   10.0246   -1.8813   24.9596 C   0  0  0  0  0  0  0  0  0  0  0  0
    9.7708   -3.0718   25.8361 C   0  0  0  0  0  0  0  0  0  0  0  0
   10.9115   -3.7337   26.5508 C   0  0  0  0  0  0  0  0  0  0  0  0
   10.6578   -4.9242   27.4274 Cl  0  0  0  0  0  0  0  0  0  0  0  0
   12.3059   -3.2050   26.3889 C   0  0  0  0  0  0  0  0  0  0  0  0
   12.5597   -2.0146   25.5124 C   0  0  0  0  0  0  0  0  0  0  0  0
   11.4190   -1.3527   24.7977 C   0  0  0  0  0  0  0  0  0  0  0  0
   11.6727   -0.1622   23.9211 C   0  0  0  0  0  0  0  0  0  0  0  0
   13.0671    0.3664   23.7593 O   0  0  0  0  0  0  0  0  0  0  0  0
    6.1671   -3.6239   25.6242 C   0  0  0  0  0  0  0  0  0  0  0  0
    5.8157   -4.8821   24.8870 C   0  0  0  0  0  0  0  0  0  0  0  0
    4.9886   -5.9384   25.5580 N   0  0  0  0  0  0  0  0  0  0  0  0
    4.5129   -5.7364   26.9661 C   0  0  0  0  0  0  0  0  0  0  0  0
    4.8642   -4.4782   27.7033 C   0  0  0  0  0  0  0  0  0  0  0  0
    4.3885   -4.2763   29.1115 C   0  0  0  0  0  0  0  0  0  0  0  0
    4.7399   -3.0180   29.8486 C   0  0  0  0  0  0  0  0  0  0  0  0
    5.5670   -1.9617   29.1777 C   0  0  0  0  0  0  0  0  0  0  0  0
    6.0427   -2.1637   27.7695 C   0  0  0  0  0  0  0  0  0  0  0  0
    5.6913   -3.4219   27.0323 C   0  0  0  0  0  0  0  0  0  0  0  0
   10.7858    1.6902   22.3299 C   0  0  0  0  0  0  0  0  0  0  0  0
   11.0850    3.0248   22.9457 C   0  0  0  0  0  0  0  0  0  0  0  0
   11.5723    5.5264   22.4409 C   0  0  0  0  0  0  0  0  0  0  0  0
   10.7668    4.2848   22.1966 N   0  0  0  0  0  0  0  0  0  0  0  0
   10.0027    4.2973   21.5210 H   0  0  0  0  0  0  0  0  0  0  0  0
   10.2191    3.4405   22.0304 H   0  0  0  0  0  0  0  0  0  0  0  0
    7.5939    0.5155   22.6730 C   0  0  0  0  0  0  0  0  0  0  0  0
    7.3346    0.3113   21.2098 O   0  0  0  0  0  0  0  0  0  0  0  0
    6.0214    0.7266   20.6156 C   0  0  0  0  0  0  0  0  0  0  0  0
    5.7912    0.5955   19.1392 C   0  0  0  0  0  0  0  0  0  0  0  0
    7.0670   -0.0825   18.7359 F   0  0  0  0  0  0  0  0  0  0  0  0
    5.1180    0.6999   17.8029 C   0  0  0  0  0  0  0  0  0  0  0  0
    4.4355    1.2280   19.0298 C   0  0  0  0  0  0  0  0  0  0  0  0
 30 31  1  0  0  0
 31 29  1  0  0  0
 29 28  1  0  0  0
 28  1  1  0  0  0
  1  2  1  0  0  0
  3  2  1  0  0  0
  3  4  1  0  0  0
  4  5  2  0  0  0
  4  6  1  0  0  0
  6 18  1  0  0  0
 18 19  2  0  0  0
 19 20  1  0  0  0
 20 21  2  0  0  0
 21 22  1  0  0  0
 22 23  2  0  0  0
 23 24  1  0  0  0
 24 25  2  0  0  0
 25 26  1  0  0  0
 26 27  2  0  0  0
  6  7  1  0  0  0
  7  8  1  0  0  0
  8 34  1  0  0  0
 34 35  1  0  0  0
 35 36  1  0  0  0
 36 37  1  0  0  0
 37 38  1  0  0  0
 37 39  1  0  0  0
 39 40  1  0  0  0
  3  9  1  0  0  0
  9 10  2  0  0  0
 10 11  1  0  0  0
 11 12  1  0  0  0
 11 13  2  0  0  0
 13 14  1  0  0  0
 14 15  2  0  0  0
 15 16  1  0  0  0
 16 17  2  0  0  0
 16  1  1  0  0  0
  8  3  1  0  0  0
 40 37  1  0  0  0
 15  9  1  0  0  0
 27 18  1  0  0  0
 27 22  1  0  0  0
 31 32  1  0  0  0
 31 33  1  0  0  0
M  CHG 1  31   1
M  END
> <minimizedAffinity>
-7.90550

> <CNNscore>
0.2797605991

> <CNNaffinity>
6.8075437546

> <CNN_VS>
1.9044824839

> <CNNaffinity_variance>
0.0731046721

$$$$



 40 45  0  0  0  0  0  0  0  0999 V2000
   10.5628    0.7180   23.5527 N   0  0  0  0  0  0  0  0  0  0  0  0
    9.1670    0.3632   23.9719 C   0  0  0  0  0  0  0  0  0  0  0  0
    8.9308   -0.8098   24.8764 C   0  0  0  0  0  0  0  0  0  0  0  0
    8.5417   -1.9484   25.7721 C   0  0  0  0  0  0  0  0  0  0  0  0
    9.0514   -2.8573   26.3969 O   0  0  0  0  0  0  0  0  0  0  0  0
    7.0494   -1.9306   25.9228 N   0  0  0  0  0  0  0  0  0  0  0  0
    6.5162   -0.7809   25.1202 C   0  0  0  0  0  0  0  0  0  0  0  0
    7.6790   -0.0883   24.4736 C   0  0  0  0  0  0  0  0  0  0  0  0
   10.0905   -1.6280   25.3619 C   0  0  0  0  0  0  0  0  0  0  0  0
    9.8544   -2.8010   26.2664 C   0  0  0  0  0  0  0  0  0  0  0  0
   11.0141   -3.6192   26.7518 C   0  0  0  0  0  0  0  0  0  0  0  0
   10.7779   -4.7922   27.6565 Cl  0  0  0  0  0  0  0  0  0  0  0  0
   12.4099   -3.2644   26.3327 C   0  0  0  0  0  0  0  0  0  0  0  0
   12.6461   -2.0914   25.4281 C   0  0  0  0  0  0  0  0  0  0  0  0
   11.4864   -1.2732   24.9427 C   0  0  0  0  0  0  0  0  0  0  0  0
   11.7225   -0.1002   24.0381 C   0  0  0  0  0  0  0  0  0  0  0  0
   13.1184    0.2546   23.6189 O   0  0  0  0  0  0  0  0  0  0  0  0
    6.2336   -2.8933   26.7336 C   0  0  0  0  0  0  0  0  0  0  0  0
    6.1167   -2.7127   28.2181 C   0  0  0  0  0  0  0  0  0  0  0  0
    5.3009   -3.6755   29.0289 N   0  0  0  0  0  0  0  0  0  0  0  0
    4.6019   -4.8189   28.3552 C   0  0  0  0  0  0  0  0  0  0  0  0
    4.7187   -4.9996   26.8707 C   0  0  0  0  0  0  0  0  0  0  0  0
    4.0197   -6.1431   26.1971 C   0  0  0  0  0  0  0  0  0  0  0  0
    4.1366   -6.3237   24.7126 C   0  0  0  0  0  0  0  0  0  0  0  0
    4.9524   -5.3609   23.9017 C   0  0  0  0  0  0  0  0  0  0  0  0
    5.6514   -4.2175   24.5754 C   0  0  0  0  0  0  0  0  0  0  0  0
    5.5346   -4.0368   26.0599 C   0  0  0  0  0  0  0  0  0  0  0  0
   10.7990    1.8911   22.6481 C   0  0  0  0  0  0  0  0  0  0  0  0
   12.0042    2.7615   22.8478 C   0  0  0  0  0  0  0  0  0  0  0  0
   11.3327    5.2685   22.9655 C   0  0  0  0  0  0  0  0  0  0  0  0
   11.8859    4.0396   23.6240 N   0  0  0  0  0  0  0  0  0  0  0  0
   12.1817    4.0729   24.5996 H   0  0  0  0  0  0  0  0  0  0  0  0
   12.2621    3.2039   24.0717 H   0  0  0  0  0  0  0  0  0  0  0  0
    7.6032    1.1148   23.5808 C   0  0  0  0  0  0  0  0  0  0  0  0
    6.5461    1.1960   22.5198 O   0  0  0  0  0  0  0  0  0  0  0  0
    6.5375    0.2068   21.3922 C   0  0  0  0  0  0  0  0  0  0  0  0
    5.6508    0.4321   20.2036 C   0  0  0  0  0  0  0  0  0  0  0  0
    4.4002    0.8891   20.8944 F   0  0  0  0  0  0  0  0  0  0  0  0
    5.1984    0.4987   18.7750 C   0  0  0  0  0  0  0  0  0  0  0  0
    6.5934    0.0534   19.0999 C   0  0  0  0  0  0  0  0  0  0  0  0
 30 31  1  0  0  0
 31 29  1  0  0  0
 29 28  1  0  0  0
 28  1  1  0  0  0
  1  2  1  0  0  0
  3  2  1  0  0  0
  3  4  1  0  0  0
  4  5  2  0  0  0
  4  6  1  0  0  0
  6 18  1  0  0  0
 18 19  2  0  0  0
 19 20  1  0  0  0
 20 21  2  0  0  0
 21 22  1  0  0  0
 22 23  2  0  0  0
 23 24  1  0  0  0
 24 25  2  0  0  0
 25 26  1  0  0  0
 26 27  2  0  0  0
  6  7  1  0  0  0
  7  8  1  0  0  0
  8 34  1  0  0  0
 34 35  1  0  0  0
 35 36  1  0  0  0
 36 37  1  0  0  0
 37 38  1  0  0  0
 37 39  1  0  0  0
 39 40  1  0  0  0
  3  9  1  0  0  0
  9 10  2  0  0  0
 10 11  1  0  0  0
 11 12  1  0  0  0
 11 13  2  0  0  0
 13 14  1  0  0  0
 14 15  2  0  0  0
 15 16  1  0  0  0
 16 17  2  0  0  0
 16  1  1  0  0  0
  8  3  1  0  0  0
 40 37  1  0  0  0
 15  9  1  0  0  0
 27 18  1  0  0  0
 27 22  1  0  0  0
 31 32  1  0  0  0
 31 33  1  0  0  0
M  CHG 1  31   1
M  END
> <minimizedAffinity>
-8.09648

> <CNNscore>
0.2660756409

> <CNNaffinity>
6.7043318748

> <CNN_VS>
1.7838593721

> <CNNaffinity_variance>
0.2354088724

$$$$



 40 45  0  0  0  0  0  0  0  0999 V2000
   10.6949    1.5250   22.7038 N   0  0  0  0  0  0  0  0  0  0  0  0
    9.3065    1.0294   22.9807 C   0  0  0  0  0  0  0  0  0  0  0  0
    9.1019   -0.2061   23.8063 C   0  0  0  0  0  0  0  0  0  0  0  0
    8.7433   -1.4201   24.6111 C   0  0  0  0  0  0  0  0  0  0  0  0
    9.2785   -2.3137   25.2366 O   0  0  0  0  0  0  0  0  0  0  0  0
    7.2481   -1.5391   24.6293 N   0  0  0  0  0  0  0  0  0  0  0  0
    6.6827   -0.3986   23.8358 C   0  0  0  0  0  0  0  0  0  0  0  0
    7.8284    0.4252   23.3272 C   0  0  0  0  0  0  0  0  0  0  0  0
   10.2858   -0.9461   24.3551 C   0  0  0  0  0  0  0  0  0  0  0  0
   10.0813   -2.1815   25.1807 C   0  0  0  0  0  0  0  0  0  0  0  0
   11.2651   -2.9214   25.7293 C   0  0  0  0  0  0  0  0  0  0  0  0
   11.0606   -4.1570   26.5550 Cl  0  0  0  0  0  0  0  0  0  0  0  0
   12.6535   -2.4258   25.4524 C   0  0  0  0  0  0  0  0  0  0  0  0
   12.8581   -1.1903   24.6268 C   0  0  0  0  0  0  0  0  0  0  0  0
   11.6742   -0.4504   24.0781 C   0  0  0  0  0  0  0  0  0  0  0  0
   11.8788    0.7851   23.2524 C   0  0  0  0  0  0  0  0  0  0  0  0
   13.2672    1.2807   22.9755 O   0  0  0  0  0  0  0  0  0  0  0  0
    6.4572   -2.6104   25.3197 C   0  0  0  0  0  0  0  0  0  0  0  0
    5.8392   -2.3408   26.6597 C   0  0  0  0  0  0  0  0  0  0  0  0
    5.0483   -3.4121   27.3501 N   0  0  0  0  0  0  0  0  0  0  0  0
    4.8755   -4.7531   26.7006 C   0  0  0  0  0  0  0  0  0  0  0  0
    5.4935   -5.0227   25.3607 C   0  0  0  0  0  0  0  0  0  0  0  0
    5.3206   -6.3638   24.7112 C   0  0  0  0  0  0  0  0  0  0  0  0
    5.9386   -6.6334   23.3713 C   0  0  0  0  0  0  0  0  0  0  0  0
    6.7295   -5.5620   22.6808 C   0  0  0  0  0  0  0  0  0  0  0  0
    6.9023   -4.2210   23.3303 C   0  0  0  0  0  0  0  0  0  0  0  0
    6.2843   -3.9514   24.6703 C   0  0  0  0  0  0  0  0  0  0  0  0
   10.8994    2.7605   21.8781 C   0  0  0  0  0  0  0  0  0  0  0  0
   11.1747    4.0737   22.5488 C   0  0  0  0  0  0  0  0  0  0  0  0
   10.2391    6.4395   23.0757 C   0  0  0  0  0  0  0  0  0  0  0  0
   10.0358    4.9576   22.9630 N   0  0  0  0  0  0  0  0  0  0  0  0
    9.1231    4.5510   23.1679 H   0  0  0  0  0  0  0  0  0  0  0  0
    9.8975    3.9499   22.8863 H   0  0  0  0  0  0  0  0  0  0  0  0
    7.7197    1.6630   22.4870 C   0  0  0  0  0  0  0  0  0  0  0  0
    7.3725    1.5538   21.0319 O   0  0  0  0  0  0  0  0  0  0  0  0
    6.0818    0.9133   20.6148 C   0  0  0  0  0  0  0  0  0  0  0  0
    5.8052    0.6601   19.1625 C   0  0  0  0  0  0  0  0  0  0  0  0
    7.0838   -0.0180   18.7681 F   0  0  0  0  0  0  0  0  0  0  0  0
    5.0845    0.6424   17.8470 C   0  0  0  0  0  0  0  0  0  0  0  0
    4.4306    1.2502   19.0524 C   0  0  0  0  0  0  0  0  0  0  0  0
 30 31  1  0  0  0
 31 29  1  0  0  0
 29 28  1  0  0  0
 28  1  1  0  0  0
  1  2  1  0  0  0
  3  2  1  0  0  0
  3  4  1  0  0  0
  4  5  2  0  0  0
  4  6  1  0  0  0
  6 18  1  0  0  0
 18 19  2  0  0  0
 19 20  1  0  0  0
 20 21  2  0  0  0
 21 22  1  0  0  0
 22 23  2  0  0  0
 23 24  1  0  0  0
 24 25  2  0  0  0
 25 26  1  0  0  0
 26 27  2  0  0  0
  6  7  1  0  0  0
  7  8  1  0  0  0
  8 34  1  0  0  0
 34 35  1  0  0  0
 35 36  1  0  0  0
 36 37  1  0  0  0
 37 38  1  0  0  0
 37 39  1  0  0  0
 39 40  1  0  0  0
  3  9  1  0  0  0
  9 10  2  0  0  0
 10 11  1  0  0  0
 11 12  1  0  0  0
 11 13  2  0  0  0
 13 14  1  0  0  0
 14 15  2  0  0  0
 15 16  1  0  0  0
 16 17  2  0  0  0
 16  1  1  0  0  0
  8  3  1  0  0  0
 40 37  1  0  0  0
 15  9  1  0  0  0
 27 18  1  0  0  0
 27 22  1  0  0  0
 31 32  1  0  0  0
 31 33  1  0  0  0
M  CHG 1  31   1
M  END
> <minimizedAffinity>
-8.23589

> <CNNscore>
0.2553445995

> <CNNaffinity>
6.9180083275

> <CNN_VS>
1.7664760351

> <CNNaffinity_variance>
0.1397246569

$$$$



 40 45  0  0  0  0  0  0  0  0999 V2000
   10.6403    1.4353   23.0967 N   0  0  0  0  0  0  0  0  0  0  0  0
    9.2427    1.0961   23.5232 C   0  0  0  0  0  0  0  0  0  0  0  0
    8.9903   -0.1165   24.3693 C   0  0  0  0  0  0  0  0  0  0  0  0
    8.5857   -1.2902   25.2111 C   0  0  0  0  0  0  0  0  0  0  0  0
    9.0810   -2.2442   25.7775 O   0  0  0  0  0  0  0  0  0  0  0  0
    7.0973   -1.2406   25.3910 N   0  0  0  0  0  0  0  0  0  0  0  0
    6.5820   -0.0363   24.6602 C   0  0  0  0  0  0  0  0  0  0  0  0
    7.7519    0.6585   24.0288 C   0  0  0  0  0  0  0  0  0  0  0  0
   10.1353   -0.9899   24.7889 C   0  0  0  0  0  0  0  0  0  0  0  0
    9.8828   -2.2025   25.6350 C   0  0  0  0  0  0  0  0  0  0  0  0
   11.0279   -3.0758   26.0546 C   0  0  0  0  0  0  0  0  0  0  0  0
   10.7754   -4.2885   26.9007 Cl  0  0  0  0  0  0  0  0  0  0  0  0
   12.4254   -2.7366   25.6281 C   0  0  0  0  0  0  0  0  0  0  0  0
   12.6779   -1.5240   24.7820 C   0  0  0  0  0  0  0  0  0  0  0  0
   11.5328   -0.6507   24.3624 C   0  0  0  0  0  0  0  0  0  0  0  0
   11.7853    0.5620   23.5163 C   0  0  0  0  0  0  0  0  0  0  0  0
   13.1828    0.9012   23.0898 O   0  0  0  0  0  0  0  0  0  0  0  0
    6.2697   -2.2230   26.1655 C   0  0  0  0  0  0  0  0  0  0  0  0
    6.0194   -3.5943   25.6115 C   0  0  0  0  0  0  0  0  0  0  0  0
    5.1918   -4.5766   26.3860 N   0  0  0  0  0  0  0  0  0  0  0  0
    4.6143   -4.1876   27.7146 C   0  0  0  0  0  0  0  0  0  0  0  0
    4.8645   -2.8163   28.2687 C   0  0  0  0  0  0  0  0  0  0  0  0
    4.2870   -2.4274   29.5974 C   0  0  0  0  0  0  0  0  0  0  0  0
    4.5373   -1.0561   30.1514 C   0  0  0  0  0  0  0  0  0  0  0  0
    5.3650   -0.0737   29.3768 C   0  0  0  0  0  0  0  0  0  0  0  0
    5.9424   -0.4627   28.0482 C   0  0  0  0  0  0  0  0  0  0  0  0
    5.6922   -1.8340   27.4941 C   0  0  0  0  0  0  0  0  0  0  0  0
   10.8927    2.6480   22.2506 C   0  0  0  0  0  0  0  0  0  0  0  0
   11.9489    3.6351   22.6508 C   0  0  0  0  0  0  0  0  0  0  0  0
   11.0317    6.0658   22.6369 C   0  0  0  0  0  0  0  0  0  0  0  0
   11.5673    4.8837   23.3891 N   0  0  0  0  0  0  0  0  0  0  0  0
   11.6721    4.9290   24.4027 H   0  0  0  0  0  0  0  0  0  0  0  0
   11.9315    4.0799   23.9006 H   0  0  0  0  0  0  0  0  0  0  0  0
    7.6936    1.9087   23.2020 C   0  0  0  0  0  0  0  0  0  0  0  0
    6.5029    2.1765   22.3301 O   0  0  0  0  0  0  0  0  0  0  0  0
    6.4715    1.6573   20.9232 C   0  0  0  0  0  0  0  0  0  0  0  0
    5.8500    0.3240   20.6295 C   0  0  0  0  0  0  0  0  0  0  0  0
    4.8758    0.2346   21.7665 F   0  0  0  0  0  0  0  0  0  0  0  0
    5.5669   -0.9781   19.9408 C   0  0  0  0  0  0  0  0  0  0  0  0
    6.6084   -0.0495   19.3904 C   0  0  0  0  0  0  0  0  0  0  0  0
 30 31  1  0  0  0
 31 29  1  0  0  0
 29 28  1  0  0  0
 28  1  1  0  0  0
  1  2  1  0  0  0
  3  2  1  0  0  0
  3  4  1  0  0  0
  4  5  2  0  0  0
  4  6  1  0  0  0
  6 18  1  0  0  0
 18 19  2  0  0  0
 19 20  1  0  0  0
 20 21  2  0  0  0
 21 22  1  0  0  0
 22 23  2  0  0  0
 23 24  1  0  0  0
 24 25  2  0  0  0
 25 26  1  0  0  0
 26 27  2  0  0  0
  6  7  1  0  0  0
  7  8  1  0  0  0
  8 34  1  0  0  0
 34 35  1  0  0  0
 35 36  1  0  0  0
 36 37  1  0  0  0
 37 38  1  0  0  0
 37 39  1  0  0  0
 39 40  1  0  0  0
  3  9  1  0  0  0
  9 10  2  0  0  0
 10 11  1  0  0  0
 11 12  1  0  0  0
 11 13  2  0  0  0
 13 14  1  0  0  0
 14 15  2  0  0  0
 15 16  1  0  0  0
 16 17  2  0  0  0
 16  1  1  0  0  0
  8  3  1  0  0  0
 40 37  1  0  0  0
 15  9  1  0  0  0
 27 18  1  0  0  0
 27 22  1  0  0  0
 31 32  1  0  0  0
 31 33  1  0  0  0
M  CHG 1  31   1
M  END
> <minimizedAffinity>
-7.35086

> <CNNscore>
0.2243714780

> <CNNaffinity>
6.5354628563

> <CNN_VS>
1.4663714170

> <CNNaffinity_variance>
0.2699685693

$$$$



 40 45  0  0  0  0  0  0  0  0999 V2000
    9.9737    0.5267   22.7981 N   0  0  0  0  0  0  0  0  0  0  0  0
    8.8257   -0.4228   22.6229 C   0  0  0  0  0  0  0  0  0  0  0  0
    8.7781   -1.6961   23.4143 C   0  0  0  0  0  0  0  0  0  0  0  0
    8.5950   -3.0002   24.1324 C   0  0  0  0  0  0  0  0  0  0  0  0
    9.1509   -3.6918   24.9625 O   0  0  0  0  0  0  0  0  0  0  0  0
    7.3154   -3.6183   23.6522 N   0  0  0  0  0  0  0  0  0  0  0  0
    6.7076   -2.6961   22.6372 C   0  0  0  0  0  0  0  0  0  0  0  0
    7.6116   -1.5082   22.4902 C   0  0  0  0  0  0  0  0  0  0  0  0
    9.8784   -2.0200   24.3809 C   0  0  0  0  0  0  0  0  0  0  0  0
    9.8308   -3.2933   25.1723 C   0  0  0  0  0  0  0  0  0  0  0  0
   10.9311   -3.6172   26.1389 C   0  0  0  0  0  0  0  0  0  0  0  0
   10.8835   -4.8906   26.9304 Cl  0  0  0  0  0  0  0  0  0  0  0  0
   12.0791   -2.6677   26.3141 C   0  0  0  0  0  0  0  0  0  0  0  0
   12.1267   -1.3944   25.5227 C   0  0  0  0  0  0  0  0  0  0  0  0
   11.0264   -1.0706   24.5561 C   0  0  0  0  0  0  0  0  0  0  0  0
   11.0740    0.2028   23.7647 C   0  0  0  0  0  0  0  0  0  0  0  0
   12.2220    1.1523   23.9398 O   0  0  0  0  0  0  0  0  0  0  0  0
    6.7439   -4.9284   24.1071 C   0  0  0  0  0  0  0  0  0  0  0  0
    7.2878   -6.2146   23.5592 C   0  0  0  0  0  0  0  0  0  0  0  0
    6.7163   -7.5247   24.0141 N   0  0  0  0  0  0  0  0  0  0  0  0
    5.6010   -7.5488   25.0169 C   0  0  0  0  0  0  0  0  0  0  0  0
    5.0572   -6.2626   25.5647 C   0  0  0  0  0  0  0  0  0  0  0  0
    3.9419   -6.2867   26.5676 C   0  0  0  0  0  0  0  0  0  0  0  0
    3.3982   -5.0005   27.1154 C   0  0  0  0  0  0  0  0  0  0  0  0
    3.9696   -3.6903   26.6605 C   0  0  0  0  0  0  0  0  0  0  0  0
    5.0849   -3.6663   25.6577 C   0  0  0  0  0  0  0  0  0  0  0  0
    5.6287   -4.9525   25.1098 C   0  0  0  0  0  0  0  0  0  0  0  0
   10.0213    1.8000   22.0066 C   0  0  0  0  0  0  0  0  0  0  0  0
    9.7416    3.1116   22.6786 C   0  0  0  0  0  0  0  0  0  0  0  0
   12.0820    4.1341   22.2022 C   0  0  0  0  0  0  0  0  0  0  0  0
   10.8773    4.0026   23.0862 N   0  0  0  0  0  0  0  0  0  0  0  0
   10.8304    4.5191   23.9645 H   0  0  0  0  0  0  0  0  0  0  0  0
   10.0581    3.9132   23.6873 H   0  0  0  0  0  0  0  0  0  0  0  0
    7.3883   -0.3378   21.5790 C   0  0  0  0  0  0  0  0  0  0  0  0
    6.0697    0.3771   21.5857 O   0  0  0  0  0  0  0  0  0  0  0  0
    5.9967    1.8200   21.1822 C   0  0  0  0  0  0  0  0  0  0  0  0
    6.0126    2.8934   22.2298 C   0  0  0  0  0  0  0  0  0  0  0  0
    6.5930    2.1258   23.3805 F   0  0  0  0  0  0  0  0  0  0  0  0
    5.8270    4.2335   22.8778 C   0  0  0  0  0  0  0  0  0  0  0  0
    5.4378    4.0338   21.4430 C   0  0  0  0  0  0  0  0  0  0  0  0
 30 31  1  0  0  0
 31 29  1  0  0  0
 29 28  1  0  0  0
 28  1  1  0  0  0
  1  2  1  0  0  0
  3  2  1  0  0  0
  3  4  1  0  0  0
  4  5  2  0  0  0
  4  6  1  0  0  0
  6 18  1  0  0  0
 18 19  2  0  0  0
 19 20  1  0  0  0
 20 21  2  0  0  0
 21 22  1  0  0  0
 22 23  2  0  0  0
 23 24  1  0  0  0
 24 25  2  0  0  0
 25 26  1  0  0  0
 26 27  2  0  0  0
  6  7  1  0  0  0
  7  8  1  0  0  0
  8 34  1  0  0  0
 34 35  1  0  0  0
 35 36  1  0  0  0
 36 37  1  0  0  0
 37 38  1  0  0  0
 37 39  1  0  0  0
 39 40  1  0  0  0
  3  9  1  0  0  0
  9 10  2  0  0  0
 10 11  1  0  0  0
 11 12  1  0  0  0
 11 13  2  0  0  0
 13 14  1  0  0  0
 14 15  2  0  0  0
 15 16  1  0  0  0
 16 17  2  0  0  0
 16  1  1  0  0  0
  8  3  1  0  0  0
 40 37  1  0  0  0
 15  9  1  0  0  0
 27 18  1  0  0  0
 27 22  1  0  0  0
 31 32  1  0  0  0
 31 33  1  0  0  0
M  CHG 1  31   1
M  END
> <minimizedAffinity>
-7.53249

> <CNNscore>
0.2072850168

> <CNNaffinity>
6.5477666855

> <CNN_VS>
1.3572539091

> <CNNaffinity_variance>
0.4658751488

$$$$
