


 35 40  0  0  0  0  0  0  0  0999 V2000
   -5.7757   -5.6164  -22.9269 C   0  0  0  0  0  0  0  0  0  0  0  0
   -6.3340   -4.2849  -22.5200 C   0  0  0  0  0  0  0  0  0  0  0  0
   -5.5237   -3.6446  -21.4321 C   0  0  0  0  0  0  0  0  0  0  0  0
   -6.1573   -2.3270  -21.0966 N   0  0  0  0  0  0  0  0  0  0  0  0
   -7.3591   -2.1530  -21.9771 C   0  0  0  0  0  0  0  0  0  0  0  0
   -8.2886   -0.9757  -21.9777 O   0  0  0  0  0  0  0  0  0  0  0  0
   -7.4684   -3.3630  -22.8568 C   0  0  0  0  0  0  0  0  0  0  0  0
   -8.5460   -2.3446  -23.0837 C   0  0  0  0  0  0  0  0  0  0  0  0
   -9.6038   -2.5897  -24.1185 N   0  0  0  0  0  0  0  0  0  0  0  0
   -9.5840   -3.8533  -24.9265 C   0  0  0  0  0  0  0  0  0  0  0  0
  -10.6419   -4.0984  -25.9614 O   0  0  0  0  0  0  0  0  0  0  0  0
   -8.5064   -4.8718  -24.6997 C   0  0  0  0  0  0  0  0  0  0  0  0
   -8.4867   -6.1354  -25.5077 C   0  0  0  0  0  0  0  0  0  0  0  0
   -7.4091   -7.1539  -25.2809 C   0  0  0  0  0  0  0  0  0  0  0  0
   -6.3512   -6.9087  -24.2460 C   0  0  0  0  0  0  0  0  0  0  0  0
   -5.2736   -7.9273  -24.0192 F   0  0  0  0  0  0  0  0  0  0  0  0
   -6.3710   -5.6452  -23.4380 C   0  0  0  0  0  0  0  0  0  0  0  0
   -7.4486   -4.6267  -23.6649 C   0  0  0  0  0  0  0  0  0  0  0  0
   -5.6739   -1.3543  -20.0621 C   0  0  0  0  0  0  0  0  0  0  0  0
   -6.1563   -1.4639  -18.6461 C   0  0  0  0  0  0  0  0  0  0  0  0
   -5.6729   -0.4911  -17.6117 N   0  0  0  0  0  0  0  0  0  0  0  0
   -4.7071    0.5913  -17.9934 C   0  0  0  0  0  0  0  0  0  0  0  0
   -4.2247    0.7009  -19.4095 C   0  0  0  0  0  0  0  0  0  0  0  0
   -3.2589    1.7834  -19.7911 C   0  0  0  0  0  0  0  0  0  0  0  0
   -2.7766    1.8929  -21.2073 C   0  0  0  0  0  0  0  0  0  0  0  0
   -3.2600    0.9201  -22.2416 C   0  0  0  0  0  0  0  0  0  0  0  0
   -4.2257   -0.1623  -21.8599 C   0  0  0  0  0  0  0  0  0  0  0  0
   -4.7081   -0.2719  -20.4439 C   0  0  0  0  0  0  0  0  0  0  0  0
  -10.6814   -1.5712  -24.3453 C   0  0  0  0  0  0  0  0  0  0  0  0
  -11.9533   -1.6359  -23.5529 C   0  0  0  0  0  0  0  0  0  0  0  0
  -13.1659   -0.7775  -23.7602 C   0  0  0  0  0  0  0  0  0  0  0  0
  -14.1980   -1.1814  -22.7494 N   0  0  0  0  0  0  0  0  0  0  0  0
  -13.6233   -2.2894  -21.9174 N   0  0  0  0  0  0  0  0  0  0  0  0
  -14.3146   -2.9930  -20.7874 C   0  0  0  0  0  0  0  0  0  0  0  0
  -12.2361   -2.5703  -22.4140 N   0  0  0  0  0  0  0  0  0  0  0  0
  2  1  1  0  0  0
  2  3  1  0  0  0
  3  4  1  0  0  0
  4 19  1  0  0  0
 19 20  2  0  0  0
 20 21  1  0  0  0
 21 22  2  0  0  0
 22 23  1  0  0  0
 23 24  2  0  0  0
 24 25  1  0  0  0
 25 26  2  0  0  0
 26 27  1  0  0  0
 27 28  2  0  0  0
  4  5  1  0  0  0
  5  6  2  0  0  0
  5  7  1  0  0  0
  7  8  1  0  0  0
  8  9  1  0  0  0
  9 29  1  0  0  0
 29 30  1  0  0  0
 30 31  1  0  0  0
 31 32  2  0  0  0
 32 33  1  0  0  0
 33 34  1  0  0  0
 33 35  1  0  0  0
  9 10  1  0  0  0
 10 11  2  0  0  0
 10 12  1  0  0  0
 12 13  2  0  0  0
 13 14  1  0  0  0
 14 15  2  0  0  0
 15 16  1  0  0  0
 15 17  1  0  0  0
 17 18  2  0  0  0
  7  2  1  0  0  0
 35 30  2  0  0  0
 18 12  1  0  0  0
 28 19  1  0  0  0
 18  7  1  0  0  0
 28 23  1  0  0  0
M  END
> <minimizedAffinity>
-8.73885

> <CNNscore>
0.6777676940

> <CNNaffinity>
6.8572807312

> <CNN_VS>
4.6476435661

> <CNNaffinity_variance>
0.1299847811

$$$$



 35 40  0  0  0  0  0  0  0  0999 V2000
   -9.5274   -2.5077  -23.7065 C   0  0  0  0  0  0  0  0  0  0  0  0
   -8.2880   -2.7368  -22.8931 C   0  0  0  0  0  0  0  0  0  0  0  0
   -8.0147   -1.6002  -21.9532 C   0  0  0  0  0  0  0  0  0  0  0  0
   -6.7640   -1.9207  -21.1896 N   0  0  0  0  0  0  0  0  0  0  0  0
   -6.2644   -3.2554  -21.6577 C   0  0  0  0  0  0  0  0  0  0  0  0
   -5.0381   -3.9617  -21.1602 O   0  0  0  0  0  0  0  0  0  0  0  0
   -7.2062   -3.7598  -22.7105 C   0  0  0  0  0  0  0  0  0  0  0  0
   -6.0637   -4.6869  -22.4193 C   0  0  0  0  0  0  0  0  0  0  0  0
   -5.9447   -5.9862  -23.1595 N   0  0  0  0  0  0  0  0  0  0  0  0
   -6.9683   -6.3582  -24.1909 C   0  0  0  0  0  0  0  0  0  0  0  0
   -6.8493   -7.6574  -24.9311 O   0  0  0  0  0  0  0  0  0  0  0  0
   -8.1109   -5.4310  -24.4821 C   0  0  0  0  0  0  0  0  0  0  0  0
   -9.1346   -5.8031  -25.5134 C   0  0  0  0  0  0  0  0  0  0  0  0
  -10.2771   -4.8759  -25.8046 C   0  0  0  0  0  0  0  0  0  0  0  0
  -10.3961   -3.5767  -25.0644 C   0  0  0  0  0  0  0  0  0  0  0  0
  -11.5388   -2.6495  -25.3556 F   0  0  0  0  0  0  0  0  0  0  0  0
   -9.3725   -3.2047  -24.0331 C   0  0  0  0  0  0  0  0  0  0  0  0
   -8.2299   -4.1318  -23.7419 C   0  0  0  0  0  0  0  0  0  0  0  0
   -6.1251   -1.0581  -20.1420 C   0  0  0  0  0  0  0  0  0  0  0  0
   -6.6607   -1.0588  -18.7409 C   0  0  0  0  0  0  0  0  0  0  0  0
   -6.0218   -0.1962  -17.6933 N   0  0  0  0  0  0  0  0  0  0  0  0
   -4.8472    0.6673  -18.0467 C   0  0  0  0  0  0  0  0  0  0  0  0
   -4.3116    0.6680  -19.4479 C   0  0  0  0  0  0  0  0  0  0  0  0
   -3.1371    1.5315  -19.8013 C   0  0  0  0  0  0  0  0  0  0  0  0
   -2.6015    1.5322  -21.2025 C   0  0  0  0  0  0  0  0  0  0  0  0
   -3.2404    0.6696  -22.2501 C   0  0  0  0  0  0  0  0  0  0  0  0
   -4.4150   -0.1939  -21.8966 C   0  0  0  0  0  0  0  0  0  0  0  0
   -4.9505   -0.1946  -20.4955 C   0  0  0  0  0  0  0  0  0  0  0  0
   -4.8020   -6.9133  -22.8683 C   0  0  0  0  0  0  0  0  0  0  0  0
   -3.5045   -6.7589  -23.6048 C   0  0  0  0  0  0  0  0  0  0  0  0
   -3.3495   -6.3829  -25.0486 C   0  0  0  0  0  0  0  0  0  0  0  0
   -1.8833   -6.3450  -25.3630 N   0  0  0  0  0  0  0  0  0  0  0  0
   -1.1321   -6.6977  -24.1134 N   0  0  0  0  0  0  0  0  0  0  0  0
    0.3592   -6.7800  -23.9748 C   0  0  0  0  0  0  0  0  0  0  0  0
   -2.1340   -6.9535  -23.0268 N   0  0  0  0  0  0  0  0  0  0  0  0
  2  1  1  0  0  0
  2  3  1  0  0  0
  3  4  1  0  0  0
  4 19  1  0  0  0
 19 20  2  0  0  0
 20 21  1  0  0  0
 21 22  2  0  0  0
 22 23  1  0  0  0
 23 24  2  0  0  0
 24 25  1  0  0  0
 25 26  2  0  0  0
 26 27  1  0  0  0
 27 28  2  0  0  0
  4  5  1  0  0  0
  5  6  2  0  0  0
  5  7  1  0  0  0
  7  8  1  0  0  0
  8  9  1  0  0  0
  9 29  1  0  0  0
 29 30  1  0  0  0
 30 31  1  0  0  0
 31 32  2  0  0  0
 32 33  1  0  0  0
 33 34  1  0  0  0
 33 35  1  0  0  0
  9 10  1  0  0  0
 10 11  2  0  0  0
 10 12  1  0  0  0
 12 13  2  0  0  0
 13 14  1  0  0  0
 14 15  2  0  0  0
 15 16  1  0  0  0
 15 17  1  0  0  0
 17 18  2  0  0  0
  7  2  1  0  0  0
 35 30  2  0  0  0
 18 12  1  0  0  0
 28 19  1  0  0  0
 18  7  1  0  0  0
 28 23  1  0  0  0
M  END
> <minimizedAffinity>
-8.57661

> <CNNscore>
0.5379672050

> <CNNaffinity>
6.5711774826

> <CNN_VS>
3.5350780487

> <CNNaffinity_variance>
0.0945779085

$$$$



 35 40  0  0  0  0  0  0  0  0999 V2000
  -10.4824   -4.3295  -25.5606 C   0  0  0  0  0  0  0  0  0  0  0  0
   -9.9633   -3.1976  -24.7242 C   0  0  0  0  0  0  0  0  0  0  0  0
  -10.8283   -1.9769  -24.8315 C   0  0  0  0  0  0  0  0  0  0  0  0
  -10.2307   -0.9078  -23.9656 N   0  0  0  0  0  0  0  0  0  0  0  0
   -8.9964   -1.4678  -23.3231 C   0  0  0  0  0  0  0  0  0  0  0  0
   -8.0870   -0.7402  -22.3777 O   0  0  0  0  0  0  0  0  0  0  0  0
   -8.8311   -2.8830  -23.7919 C   0  0  0  0  0  0  0  0  0  0  0  0
   -7.7617   -2.4252  -22.8449 C   0  0  0  0  0  0  0  0  0  0  0  0
   -6.6580   -3.3614  -22.4507 N   0  0  0  0  0  0  0  0  0  0  0  0
   -6.6236   -4.7554  -23.0035 C   0  0  0  0  0  0  0  0  0  0  0  0
   -5.5199   -5.6915  -22.6094 O   0  0  0  0  0  0  0  0  0  0  0  0
   -7.6930   -5.2132  -23.9506 C   0  0  0  0  0  0  0  0  0  0  0  0
   -7.6587   -6.6072  -24.5034 C   0  0  0  0  0  0  0  0  0  0  0  0
   -8.7280   -7.0649  -25.4504 C   0  0  0  0  0  0  0  0  0  0  0  0
   -9.8317   -6.1288  -25.8446 C   0  0  0  0  0  0  0  0  0  0  0  0
  -10.9011   -6.5866  -26.7917 F   0  0  0  0  0  0  0  0  0  0  0  0
   -9.8661   -4.7348  -25.2918 C   0  0  0  0  0  0  0  0  0  0  0  0
   -8.7967   -4.2770  -24.3448 C   0  0  0  0  0  0  0  0  0  0  0  0
  -10.7724    0.4780  -23.7755 C   0  0  0  0  0  0  0  0  0  0  0  0
  -12.0018    0.6952  -22.9441 C   0  0  0  0  0  0  0  0  0  0  0  0
  -12.5434    2.0810  -22.7540 N   0  0  0  0  0  0  0  0  0  0  0  0
  -11.8556    3.2496  -23.3953 C   0  0  0  0  0  0  0  0  0  0  0  0
  -10.6261    3.0324  -24.2267 C   0  0  0  0  0  0  0  0  0  0  0  0
   -9.9383    4.2010  -24.8681 C   0  0  0  0  0  0  0  0  0  0  0  0
   -8.7088    3.9837  -25.6994 C   0  0  0  0  0  0  0  0  0  0  0  0
   -8.1673    2.5979  -25.8895 C   0  0  0  0  0  0  0  0  0  0  0  0
   -8.8551    1.4294  -25.2482 C   0  0  0  0  0  0  0  0  0  0  0  0
  -10.0845    1.6466  -24.4168 C   0  0  0  0  0  0  0  0  0  0  0  0
   -5.5886   -2.9035  -21.5037 C   0  0  0  0  0  0  0  0  0  0  0  0
   -5.9403   -2.0128  -20.3492 C   0  0  0  0  0  0  0  0  0  0  0  0
   -7.2613   -1.9690  -19.6400 C   0  0  0  0  0  0  0  0  0  0  0  0
   -7.1703   -0.9386  -18.5537 N   0  0  0  0  0  0  0  0  0  0  0  0
   -5.7929   -0.3456  -18.5916 N   0  0  0  0  0  0  0  0  0  0  0  0
   -5.2680    0.7236  -17.6798 C   0  0  0  0  0  0  0  0  0  0  0  0
   -5.0328   -1.0095  -19.7013 N   0  0  0  0  0  0  0  0  0  0  0  0
  2  1  1  0  0  0
  2  3  1  0  0  0
  3  4  1  0  0  0
  4 19  1  0  0  0
 19 20  2  0  0  0
 20 21  1  0  0  0
 21 22  2  0  0  0
 22 23  1  0  0  0
 23 24  2  0  0  0
 24 25  1  0  0  0
 25 26  2  0  0  0
 26 27  1  0  0  0
 27 28  2  0  0  0
  4  5  1  0  0  0
  5  6  2  0  0  0
  5  7  1  0  0  0
  7  8  1  0  0  0
  8  9  1  0  0  0
  9 29  1  0  0  0
 29 30  1  0  0  0
 30 31  1  0  0  0
 31 32  2  0  0  0
 32 33  1  0  0  0
 33 34  1  0  0  0
 33 35  1  0  0  0
  9 10  1  0  0  0
 10 11  2  0  0  0
 10 12  1  0  0  0
 12 13  2  0  0  0
 13 14  1  0  0  0
 14 15  2  0  0  0
 15 16  1  0  0  0
 15 17  1  0  0  0
 17 18  2  0  0  0
  7  2  1  0  0  0
 35 30  2  0  0  0
 18 12  1  0  0  0
 28 19  1  0  0  0
 18  7  1  0  0  0
 28 23  1  0  0  0
M  END
> <minimizedAffinity>
-7.90927

> <CNNscore>
0.4871858358

> <CNNaffinity>
6.6914992332

> <CNN_VS>
3.2600035667

> <CNNaffinity_variance>
0.1922167689

$$$$



 35 40  0  0  0  0  0  0  0  0999 V2000
   -9.5767   -4.7368  -25.1141 C   0  0  0  0  0  0  0  0  0  0  0  0
   -9.5082   -3.5024  -24.2646 C   0  0  0  0  0  0  0  0  0  0  0  0
  -10.6102   -2.5369  -24.5866 C   0  0  0  0  0  0  0  0  0  0  0  0
  -10.4570   -1.3434  -23.6910 N   0  0  0  0  0  0  0  0  0  0  0  0
   -9.2605   -1.5713  -22.8156 C   0  0  0  0  0  0  0  0  0  0  0  0
   -8.7415   -0.6300  -21.7694 O   0  0  0  0  0  0  0  0  0  0  0  0
   -8.6741   -2.9056  -23.1701 C   0  0  0  0  0  0  0  0  0  0  0  0
   -7.9373   -2.1856  -22.0798 C   0  0  0  0  0  0  0  0  0  0  0  0
   -6.7289   -2.8130  -21.4503 N   0  0  0  0  0  0  0  0  0  0  0  0
   -6.2573   -4.1603  -21.9111 C   0  0  0  0  0  0  0  0  0  0  0  0
   -5.0490   -4.7876  -21.2816 O   0  0  0  0  0  0  0  0  0  0  0  0
   -6.9941   -4.8803  -23.0014 C   0  0  0  0  0  0  0  0  0  0  0  0
   -6.5225   -6.2276  -23.4622 C   0  0  0  0  0  0  0  0  0  0  0  0
   -7.2593   -6.9475  -24.5526 C   0  0  0  0  0  0  0  0  0  0  0  0
   -8.4677   -6.3202  -25.1821 C   0  0  0  0  0  0  0  0  0  0  0  0
   -9.2045   -7.0402  -26.2724 F   0  0  0  0  0  0  0  0  0  0  0  0
   -8.9393   -4.9729  -24.7213 C   0  0  0  0  0  0  0  0  0  0  0  0
   -8.2025   -4.2529  -23.6310 C   0  0  0  0  0  0  0  0  0  0  0  0
  -11.3446   -0.1343  -23.6739 C   0  0  0  0  0  0  0  0  0  0  0  0
  -12.7868   -0.2681  -23.2841 C   0  0  0  0  0  0  0  0  0  0  0  0
  -13.6744    0.9410  -23.2670 N   0  0  0  0  0  0  0  0  0  0  0  0
  -13.1197    2.2839  -23.6397 C   0  0  0  0  0  0  0  0  0  0  0  0
  -11.6774    2.4177  -24.0295 C   0  0  0  0  0  0  0  0  0  0  0  0
  -11.1227    3.7607  -24.4021 C   0  0  0  0  0  0  0  0  0  0  0  0
   -9.6804    3.8944  -24.7919 C   0  0  0  0  0  0  0  0  0  0  0  0
   -8.7929    2.6853  -24.8090 C   0  0  0  0  0  0  0  0  0  0  0  0
   -9.3476    1.3424  -24.4364 C   0  0  0  0  0  0  0  0  0  0  0  0
  -10.7898    1.2086  -24.0466 C   0  0  0  0  0  0  0  0  0  0  0  0
   -5.9921   -2.0930  -20.3599 C   0  0  0  0  0  0  0  0  0  0  0  0
   -5.0473   -0.9793  -20.7020 C   0  0  0  0  0  0  0  0  0  0  0  0
   -4.5919   -0.6016  -22.0803 C   0  0  0  0  0  0  0  0  0  0  0  0
   -3.6551    0.5633  -21.9560 N   0  0  0  0  0  0  0  0  0  0  0  0
   -3.5316    0.9055  -20.5007 N   0  0  0  0  0  0  0  0  0  0  0  0
   -2.6945    2.0076  -19.9221 C   0  0  0  0  0  0  0  0  0  0  0  0
   -4.3920   -0.0479  -19.7257 N   0  0  0  0  0  0  0  0  0  0  0  0
  2  1  1  0  0  0
  2  3  1  0  0  0
  3  4  1  0  0  0
  4 19  1  0  0  0
 19 20  2  0  0  0
 20 21  1  0  0  0
 21 22  2  0  0  0
 22 23  1  0  0  0
 23 24  2  0  0  0
 24 25  1  0  0  0
 25 26  2  0  0  0
 26 27  1  0  0  0
 27 28  2  0  0  0
  4  5  1  0  0  0
  5  6  2  0  0  0
  5  7  1  0  0  0
  7  8  1  0  0  0
  8  9  1  0  0  0
  9 29  1  0  0  0
 29 30  1  0  0  0
 30 31  1  0  0  0
 31 32  2  0  0  0
 32 33  1  0  0  0
 33 34  1  0  0  0
 33 35  1  0  0  0
  9 10  1  0  0  0
 10 11  2  0  0  0
 10 12  1  0  0  0
 12 13  2  0  0  0
 13 14  1  0  0  0
 14 15  2  0  0  0
 15 16  1  0  0  0
 15 17  1  0  0  0
 17 18  2  0  0  0
  7  2  1  0  0  0
 35 30  2  0  0  0
 18 12  1  0  0  0
 28 19  1  0  0  0
 18  7  1  0  0  0
 28 23  1  0  0  0
M  END
> <minimizedAffinity>
-8.66280

> <CNNscore>
0.3837960958

> <CNNaffinity>
6.4287557602

> <CNN_VS>
2.4673314095

> <CNNaffinity_variance>
0.0882484168

$$$$



 35 40  0  0  0  0  0  0  0  0999 V2000
   -7.2179   -0.0178  -21.0718 C   0  0  0  0  0  0  0  0  0  0  0  0
   -8.3852   -0.1751  -22.0006 C   0  0  0  0  0  0  0  0  0  0  0  0
   -9.1831    1.0895  -22.1195 C   0  0  0  0  0  0  0  0  0  0  0  0
  -10.3204    0.8329  -23.0632 N   0  0  0  0  0  0  0  0  0  0  0  0
  -10.2254   -0.5902  -23.5276 C   0  0  0  0  0  0  0  0  0  0  0  0
  -11.1620   -1.2708  -24.4813 O   0  0  0  0  0  0  0  0  0  0  0  0
   -9.0294   -1.2132  -22.8709 C   0  0  0  0  0  0  0  0  0  0  0  0
   -9.7796   -2.1419  -23.7790 C   0  0  0  0  0  0  0  0  0  0  0  0
   -9.3101   -3.5549  -23.9607 N   0  0  0  0  0  0  0  0  0  0  0  0
   -8.0905   -4.0393  -23.2342 C   0  0  0  0  0  0  0  0  0  0  0  0
   -7.6210   -5.4523  -23.4159 O   0  0  0  0  0  0  0  0  0  0  0  0
   -7.3402   -3.1106  -22.3260 C   0  0  0  0  0  0  0  0  0  0  0  0
   -6.1205   -3.5950  -21.5996 C   0  0  0  0  0  0  0  0  0  0  0  0
   -5.3703   -2.6663  -20.6915 C   0  0  0  0  0  0  0  0  0  0  0  0
   -5.8398   -1.2533  -20.5098 C   0  0  0  0  0  0  0  0  0  0  0  0
   -5.0895   -0.3246  -19.6016 F   0  0  0  0  0  0  0  0  0  0  0  0
   -7.0594   -0.7689  -21.2362 C   0  0  0  0  0  0  0  0  0  0  0  0
   -7.8096   -1.6976  -22.1444 C   0  0  0  0  0  0  0  0  0  0  0  0
  -11.3687    1.8253  -23.4710 C   0  0  0  0  0  0  0  0  0  0  0  0
  -12.7482    1.7412  -22.8881 C   0  0  0  0  0  0  0  0  0  0  0  0
  -13.7965    2.7335  -23.2959 N   0  0  0  0  0  0  0  0  0  0  0  0
  -13.4653    3.8100  -24.2866 C   0  0  0  0  0  0  0  0  0  0  0  0
  -12.0857    3.8941  -24.8694 C   0  0  0  0  0  0  0  0  0  0  0  0
  -11.7544    4.9707  -25.8601 C   0  0  0  0  0  0  0  0  0  0  0  0
  -10.3748    5.0547  -26.4430 C   0  0  0  0  0  0  0  0  0  0  0  0
   -9.3266    4.0624  -26.0352 C   0  0  0  0  0  0  0  0  0  0  0  0
   -9.6579    2.9859  -25.0445 C   0  0  0  0  0  0  0  0  0  0  0  0
  -11.0374    2.9018  -24.4617 C   0  0  0  0  0  0  0  0  0  0  0  0
  -10.0604   -4.4836  -24.8689 C   0  0  0  0  0  0  0  0  0  0  0  0
   -9.3123   -5.3635  -25.8259 C   0  0  0  0  0  0  0  0  0  0  0  0
   -9.5665   -6.8223  -26.0652 C   0  0  0  0  0  0  0  0  0  0  0  0
   -8.5899   -7.2995  -27.0989 N   0  0  0  0  0  0  0  0  0  0  0  0
   -7.7321   -6.1356  -27.4985 N   0  0  0  0  0  0  0  0  0  0  0  0
   -6.6227   -6.1634  -28.5077 C   0  0  0  0  0  0  0  0  0  0  0  0
   -8.1786   -4.9391  -26.7118 N   0  0  0  0  0  0  0  0  0  0  0  0
  2  1  1  0  0  0
  2  3  1  0  0  0
  3  4  1  0  0  0
  4 19  1  0  0  0
 19 20  2  0  0  0
 20 21  1  0  0  0
 21 22  2  0  0  0
 22 23  1  0  0  0
 23 24  2  0  0  0
 24 25  1  0  0  0
 25 26  2  0  0  0
 26 27  1  0  0  0
 27 28  2  0  0  0
  4  5  1  0  0  0
  5  6  2  0  0  0
  5  7  1  0  0  0
  7  8  1  0  0  0
  8  9  1  0  0  0
  9 29  1  0  0  0
 29 30  1  0  0  0
 30 31  1  0  0  0
 31 32  2  0  0  0
 32 33  1  0  0  0
 33 34  1  0  0  0
 33 35  1  0  0  0
  9 10  1  0  0  0
 10 11  2  0  0  0
 10 12  1  0  0  0
 12 13  2  0  0  0
 13 14  1  0  0  0
 14 15  2  0  0  0
 15 16  1  0  0  0
 15 17  1  0  0  0
 17 18  2  0  0  0
  7  2  1  0  0  0
 35 30  2  0  0  0
 18 12  1  0  0  0
 28 19  1  0  0  0
 18  7  1  0  0  0
 28 23  1  0  0  0
M  END
> <minimizedAffinity>
-8.96261

> <CNNscore>
0.3625441194

> <CNNaffinity>
6.1870245934

> <CNN_VS>
2.2430694103

> <CNNaffinity_variance>
0.3353876472

$$$$



 35 40  0  0  0  0  0  0  0  0999 V2000
   -5.8442   -5.2902  -23.3304 C   0  0  0  0  0  0  0  0  0  0  0  0
   -6.5015   -4.0927  -22.7108 C   0  0  0  0  0  0  0  0  0  0  0  0
   -5.6124   -3.4202  -21.7071 C   0  0  0  0  0  0  0  0  0  0  0  0
   -6.3534   -2.2424  -21.1471 N   0  0  0  0  0  0  0  0  0  0  0  0
   -7.7005   -2.1870  -21.8046 C   0  0  0  0  0  0  0  0  0  0  0  0
   -8.7686   -1.1671  -21.5418 O   0  0  0  0  0  0  0  0  0  0  0  0
   -7.7920   -3.3306  -22.7710 C   0  0  0  0  0  0  0  0  0  0  0  0
   -9.0216   -2.4728  -22.7226 C   0  0  0  0  0  0  0  0  0  0  0  0
  -10.1972   -2.7973  -23.5959 N   0  0  0  0  0  0  0  0  0  0  0  0
  -10.1433   -3.9794  -24.5176 C   0  0  0  0  0  0  0  0  0  0  0  0
  -11.3189   -4.3039  -25.3908 O   0  0  0  0  0  0  0  0  0  0  0  0
   -8.9137   -4.8373  -24.5660 C   0  0  0  0  0  0  0  0  0  0  0  0
   -8.8597   -6.0194  -25.4876 C   0  0  0  0  0  0  0  0  0  0  0  0
   -7.6302   -6.8772  -25.5360 C   0  0  0  0  0  0  0  0  0  0  0  0
   -6.4545   -6.5527  -24.6627 C   0  0  0  0  0  0  0  0  0  0  0  0
   -5.2249   -7.4105  -24.7111 F   0  0  0  0  0  0  0  0  0  0  0  0
   -6.5085   -5.3705  -23.7410 C   0  0  0  0  0  0  0  0  0  0  0  0
   -7.7380   -4.5128  -23.6927 C   0  0  0  0  0  0  0  0  0  0  0  0
   -5.8379   -1.2876  -20.1114 C   0  0  0  0  0  0  0  0  0  0  0  0
   -6.3682   -1.3438  -18.7095 C   0  0  0  0  0  0  0  0  0  0  0  0
   -5.8527   -0.3891  -17.6738 N   0  0  0  0  0  0  0  0  0  0  0  0
   -4.8069    0.6219  -18.0401 C   0  0  0  0  0  0  0  0  0  0  0  0
   -4.2766    0.6781  -19.4421 C   0  0  0  0  0  0  0  0  0  0  0  0
   -3.2308    1.6892  -19.8085 C   0  0  0  0  0  0  0  0  0  0  0  0
   -2.7006    1.7453  -21.2105 C   0  0  0  0  0  0  0  0  0  0  0  0
   -3.2161    0.7906  -22.2461 C   0  0  0  0  0  0  0  0  0  0  0  0
   -4.2619   -0.2204  -21.8798 C   0  0  0  0  0  0  0  0  0  0  0  0
   -4.7921   -0.2766  -20.4778 C   0  0  0  0  0  0  0  0  0  0  0  0
  -11.4269   -1.9395  -23.5475 C   0  0  0  0  0  0  0  0  0  0  0  0
  -11.3153   -0.4568  -23.7455 C   0  0  0  0  0  0  0  0  0  0  0  0
  -12.3070    0.5710  -23.2872 C   0  0  0  0  0  0  0  0  0  0  0  0
  -11.7970    1.9214  -23.6949 N   0  0  0  0  0  0  0  0  0  0  0  0
  -10.4900    1.7282  -24.4053 N   0  0  0  0  0  0  0  0  0  0  0  0
   -9.6316    2.8142  -24.9829 C   0  0  0  0  0  0  0  0  0  0  0  0
  -10.1923    0.2584  -24.4365 N   0  0  0  0  0  0  0  0  0  0  0  0
  2  1  1  0  0  0
  2  3  1  0  0  0
  3  4  1  0  0  0
  4 19  1  0  0  0
 19 20  2  0  0  0
 20 21  1  0  0  0
 21 22  2  0  0  0
 22 23  1  0  0  0
 23 24  2  0  0  0
 24 25  1  0  0  0
 25 26  2  0  0  0
 26 27  1  0  0  0
 27 28  2  0  0  0
  4  5  1  0  0  0
  5  6  2  0  0  0
  5  7  1  0  0  0
  7  8  1  0  0  0
  8  9  1  0  0  0
  9 29  1  0  0  0
 29 30  1  0  0  0
 30 31  1  0  0  0
 31 32  2  0  0  0
 32 33  1  0  0  0
 33 34  1  0  0  0
 33 35  1  0  0  0
  9 10  1  0  0  0
 10 11  2  0  0  0
 10 12  1  0  0  0
 12 13  2  0  0  0
 13 14  1  0  0  0
 14 15  2  0  0  0
 15 16  1  0  0  0
 15 17  1  0  0  0
 17 18  2  0  0  0
  7  2  1  0  0  0
 35 30  2  0  0  0
 18 12  1  0  0  0
 28 19  1  0  0  0
 18  7  1  0  0  0
 28 23  1  0  0  0
M  END
> <minimizedAffinity>
-8.97861

> <CNNscore>
0.3587900698

> <CNNaffinity>
6.2901115417

> <CNN_VS>
2.2568295002

> <CNNaffinity_variance>
0.1128549948

$$$$



 35 40  0  0  0  0  0  0  0  0999 V2000
   -7.0851   -4.3457  -25.4720 C   0  0  0  0  0  0  0  0  0  0  0  0
   -7.0093   -2.9817  -24.8524 C   0  0  0  0  0  0  0  0  0  0  0  0
   -7.4104   -1.9039  -25.8155 C   0  0  0  0  0  0  0  0  0  0  0  0
   -7.3025   -0.5860  -25.1075 N   0  0  0  0  0  0  0  0  0  0  0  0
   -6.8348   -0.8492  -23.7068 C   0  0  0  0  0  0  0  0  0  0  0  0
   -6.5910    0.1865  -22.6494 O   0  0  0  0  0  0  0  0  0  0  0  0
   -6.6536   -2.3298  -23.5491 C   0  0  0  0  0  0  0  0  0  0  0  0
   -6.3318   -1.5409  -22.3146 C   0  0  0  0  0  0  0  0  0  0  0  0
   -5.8750   -2.2459  -21.0719 N   0  0  0  0  0  0  0  0  0  0  0  0
   -5.7401   -3.7398  -21.0636 C   0  0  0  0  0  0  0  0  0  0  0  0
   -5.2833   -4.4447  -19.8209 O   0  0  0  0  0  0  0  0  0  0  0  0
   -6.0619   -4.5287  -22.2982 C   0  0  0  0  0  0  0  0  0  0  0  0
   -5.9270   -6.0226  -22.2899 C   0  0  0  0  0  0  0  0  0  0  0  0
   -6.2488   -6.8115  -23.5244 C   0  0  0  0  0  0  0  0  0  0  0  0
   -6.7055   -6.1065  -24.7672 C   0  0  0  0  0  0  0  0  0  0  0  0
   -7.0274   -6.8955  -26.0017 F   0  0  0  0  0  0  0  0  0  0  0  0
   -6.8405   -4.6126  -24.7754 C   0  0  0  0  0  0  0  0  0  0  0  0
   -6.5186   -3.8238  -23.5409 C   0  0  0  0  0  0  0  0  0  0  0  0
   -7.6086    0.7591  -25.6967 C   0  0  0  0  0  0  0  0  0  0  0  0
   -8.0217    0.8717  -27.1342 C   0  0  0  0  0  0  0  0  0  0  0  0
   -8.3278    2.2168  -27.7234 N   0  0  0  0  0  0  0  0  0  0  0  0
   -8.2208    3.4491  -26.8750 C   0  0  0  0  0  0  0  0  0  0  0  0
   -7.8076    3.3365  -25.4374 C   0  0  0  0  0  0  0  0  0  0  0  0
   -7.7005    4.5689  -24.5890 C   0  0  0  0  0  0  0  0  0  0  0  0
   -7.2873    4.4562  -23.1515 C   0  0  0  0  0  0  0  0  0  0  0  0
   -6.9813    3.1111  -22.5623 C   0  0  0  0  0  0  0  0  0  0  0  0
   -7.0884    1.8788  -23.4107 C   0  0  0  0  0  0  0  0  0  0  0  0
   -7.5015    1.9914  -24.8482 C   0  0  0  0  0  0  0  0  0  0  0  0
   -5.5532   -1.4569  -19.8373 C   0  0  0  0  0  0  0  0  0  0  0  0
   -4.6336   -0.2749  -19.9212 C   0  0  0  0  0  0  0  0  0  0  0  0
   -4.4889    0.8045  -18.8897 C   0  0  0  0  0  0  0  0  0  0  0  0
   -3.4631    1.7818  -19.3822 N   0  0  0  0  0  0  0  0  0  0  0  0
   -2.9738    1.3064  -20.7182 N   0  0  0  0  0  0  0  0  0  0  0  0
   -1.9422    1.9833  -21.5712 C   0  0  0  0  0  0  0  0  0  0  0  0
   -3.6972    0.0353  -21.0512 N   0  0  0  0  0  0  0  0  0  0  0  0
  2  1  1  0  0  0
  2  3  1  0  0  0
  3  4  1  0  0  0
  4 19  1  0  0  0
 19 20  2  0  0  0
 20 21  1  0  0  0
 21 22  2  0  0  0
 22 23  1  0  0  0
 23 24  2  0  0  0
 24 25  1  0  0  0
 25 26  2  0  0  0
 26 27  1  0  0  0
 27 28  2  0  0  0
  4  5  1  0  0  0
  5  6  2  0  0  0
  5  7  1  0  0  0
  7  8  1  0  0  0
  8  9  1  0  0  0
  9 29  1  0  0  0
 29 30  1  0  0  0
 30 31  1  0  0  0
 31 32  2  0  0  0
 32 33  1  0  0  0
 33 34  1  0  0  0
 33 35  1  0  0  0
  9 10  1  0  0  0
 10 11  2  0  0  0
 10 12  1  0  0  0
 12 13  2  0  0  0
 13 14  1  0  0  0
 14 15  2  0  0  0
 15 16  1  0  0  0
 15 17  1  0  0  0
 17 18  2  0  0  0
  7  2  1  0  0  0
 35 30  2  0  0  0
 18 12  1  0  0  0
 28 19  1  0  0  0
 18  7  1  0  0  0
 28 23  1  0  0  0
M  END
> <minimizedAffinity>
-7.50628

> <CNNscore>
0.3484467268

> <CNNaffinity>
6.2445921898

> <CNN_VS>
2.1759076118

> <CNNaffinity_variance>
0.0270638708

$$$$



 35 40  0  0  0  0  0  0  0  0999 V2000
   -5.5809    2.0438  -21.9439 C   0  0  0  0  0  0  0  0  0  0  0  0
   -6.5690    1.3870  -22.8618 C   0  0  0  0  0  0  0  0  0  0  0  0
   -7.9823    1.7607  -22.5259 C   0  0  0  0  0  0  0  0  0  0  0  0
   -8.8895    1.0590  -23.4927 N   0  0  0  0  0  0  0  0  0  0  0  0
   -8.0368    0.2517  -24.4260 C   0  0  0  0  0  0  0  0  0  0  0  0
   -8.5315   -0.6076  -25.5516 O   0  0  0  0  0  0  0  0  0  0  0  0
   -6.6026    0.4544  -24.0361 C   0  0  0  0  0  0  0  0  0  0  0  0
   -6.7926   -0.4637  -25.2070 C   0  0  0  0  0  0  0  0  0  0  0  0
   -5.6013   -1.0846  -25.8742 N   0  0  0  0  0  0  0  0  0  0  0  0
   -4.2200   -0.7874  -25.3707 C   0  0  0  0  0  0  0  0  0  0  0  0
   -3.0286   -1.4083  -26.0379 O   0  0  0  0  0  0  0  0  0  0  0  0
   -4.0299    0.1308  -24.1998 C   0  0  0  0  0  0  0  0  0  0  0  0
   -2.6486    0.4281  -23.6962 C   0  0  0  0  0  0  0  0  0  0  0  0
   -2.4587    1.3462  -22.5254 C   0  0  0  0  0  0  0  0  0  0  0  0
   -3.6500    1.9671  -21.8581 C   0  0  0  0  0  0  0  0  0  0  0  0
   -3.4600    2.8853  -20.6872 F   0  0  0  0  0  0  0  0  0  0  0  0
   -5.0313    1.6698  -22.3617 C   0  0  0  0  0  0  0  0  0  0  0  0
   -5.2213    0.7517  -23.5325 C   0  0  0  0  0  0  0  0  0  0  0  0
  -10.3865    1.1488  -23.5211 C   0  0  0  0  0  0  0  0  0  0  0  0
  -11.0536    2.4502  -23.8547 C   0  0  0  0  0  0  0  0  0  0  0  0
  -12.5506    2.5400  -23.8832 N   0  0  0  0  0  0  0  0  0  0  0  0
  -13.3805    1.3284  -23.5780 C   0  0  0  0  0  0  0  0  0  0  0  0
  -12.7134    0.0270  -23.2443 C   0  0  0  0  0  0  0  0  0  0  0  0
  -13.5435   -1.1847  -22.9391 C   0  0  0  0  0  0  0  0  0  0  0  0
  -12.8763   -2.4861  -22.6054 C   0  0  0  0  0  0  0  0  0  0  0  0
  -11.3793   -2.5758  -22.5770 C   0  0  0  0  0  0  0  0  0  0  0  0
  -10.5494   -1.3642  -22.8822 C   0  0  0  0  0  0  0  0  0  0  0  0
  -11.2164   -0.0629  -23.2159 C   0  0  0  0  0  0  0  0  0  0  0  0
   -5.7913   -2.0028  -27.0451 C   0  0  0  0  0  0  0  0  0  0  0  0
   -6.6122   -3.2492  -26.8953 C   0  0  0  0  0  0  0  0  0  0  0  0
   -6.4389   -4.2970  -25.8360 C   0  0  0  0  0  0  0  0  0  0  0  0
   -7.4701   -5.3621  -26.0645 N   0  0  0  0  0  0  0  0  0  0  0  0
   -8.2808   -4.9725  -27.2650 N   0  0  0  0  0  0  0  0  0  0  0  0
   -9.4213   -5.7520  -27.8495 C   0  0  0  0  0  0  0  0  0  0  0  0
   -7.7505   -3.6667  -27.7785 N   0  0  0  0  0  0  0  0  0  0  0  0
  2  1  1  0  0  0
  2  3  1  0  0  0
  3  4  1  0  0  0
  4 19  1  0  0  0
 19 20  2  0  0  0
 20 21  1  0  0  0
 21 22  2  0  0  0
 22 23  1  0  0  0
 23 24  2  0  0  0
 24 25  1  0  0  0
 25 26  2  0  0  0
 26 27  1  0  0  0
 27 28  2  0  0  0
  4  5  1  0  0  0
  5  6  2  0  0  0
  5  7  1  0  0  0
  7  8  1  0  0  0
  8  9  1  0  0  0
  9 29  1  0  0  0
 29 30  1  0  0  0
 30 31  1  0  0  0
 31 32  2  0  0  0
 32 33  1  0  0  0
 33 34  1  0  0  0
 33 35  1  0  0  0
  9 10  1  0  0  0
 10 11  2  0  0  0
 10 12  1  0  0  0
 12 13  2  0  0  0
 13 14  1  0  0  0
 14 15  2  0  0  0
 15 16  1  0  0  0
 15 17  1  0  0  0
 17 18  2  0  0  0
  7  2  1  0  0  0
 35 30  2  0  0  0
 18 12  1  0  0  0
 28 19  1  0  0  0
 18  7  1  0  0  0
 28 23  1  0  0  0
M  END
> <minimizedAffinity>
-7.49179

> <CNNscore>
0.2774640620

> <CNNaffinity>
6.1103096008

> <CNN_VS>
1.6953912973

> <CNNaffinity_variance>
0.1773338765

$$$$



 35 40  0  0  0  0  0  0  0  0999 V2000
  -11.6518   -2.3438  -22.9669 C   0  0  0  0  0  0  0  0  0  0  0  0
  -10.1856   -2.2682  -23.2743 C   0  0  0  0  0  0  0  0  0  0  0  0
   -9.4986   -3.5849  -23.0631 C   0  0  0  0  0  0  0  0  0  0  0  0
   -8.0463   -3.4083  -23.3943 N   0  0  0  0  0  0  0  0  0  0  0  0
   -7.8358   -1.9825  -23.8101 C   0  0  0  0  0  0  0  0  0  0  0  0
   -6.5319   -1.3691  -24.2270 O   0  0  0  0  0  0  0  0  0  0  0  0
   -9.1579   -1.2779  -23.7360 C   0  0  0  0  0  0  0  0  0  0  0  0
   -8.0254   -0.4041  -24.1876 C   0  0  0  0  0  0  0  0  0  0  0  0
   -8.2759    1.0376  -24.5172 N   0  0  0  0  0  0  0  0  0  0  0  0
   -9.6588    1.6056  -24.3952 C   0  0  0  0  0  0  0  0  0  0  0  0
   -9.9092    3.0473  -24.7249 O   0  0  0  0  0  0  0  0  0  0  0  0
  -10.7913    0.7318  -23.9436 C   0  0  0  0  0  0  0  0  0  0  0  0
  -12.1743    1.2997  -23.8216 C   0  0  0  0  0  0  0  0  0  0  0  0
  -13.3067    0.4259  -23.3700 C   0  0  0  0  0  0  0  0  0  0  0  0
  -13.0563   -1.0158  -23.0404 C   0  0  0  0  0  0  0  0  0  0  0  0
  -14.1888   -1.8896  -22.5888 F   0  0  0  0  0  0  0  0  0  0  0  0
  -11.6733   -1.5838  -23.1624 C   0  0  0  0  0  0  0  0  0  0  0  0
  -10.5409   -0.7100  -23.6140 C   0  0  0  0  0  0  0  0  0  0  0  0
   -6.9900   -4.4709  -23.3223 C   0  0  0  0  0  0  0  0  0  0  0  0
   -6.2336   -4.6912  -22.0460 C   0  0  0  0  0  0  0  0  0  0  0  0
   -5.1774   -5.7537  -21.9739 N   0  0  0  0  0  0  0  0  0  0  0  0
   -4.8776   -6.5960  -23.1784 C   0  0  0  0  0  0  0  0  0  0  0  0
   -5.6340   -6.3757  -24.4548 C   0  0  0  0  0  0  0  0  0  0  0  0
   -5.3342   -7.2180  -25.6593 C   0  0  0  0  0  0  0  0  0  0  0  0
   -6.0907   -6.9977  -26.9357 C   0  0  0  0  0  0  0  0  0  0  0  0
   -7.1469   -5.9351  -27.0076 C   0  0  0  0  0  0  0  0  0  0  0  0
   -7.4467   -5.0928  -25.8032 C   0  0  0  0  0  0  0  0  0  0  0  0
   -6.6903   -5.3131  -24.5268 C   0  0  0  0  0  0  0  0  0  0  0  0
   -7.1433    1.9114  -24.9689 C   0  0  0  0  0  0  0  0  0  0  0  0
   -6.5448    2.9113  -24.0244 C   0  0  0  0  0  0  0  0  0  0  0  0
   -5.3135    2.7102  -23.1917 C   0  0  0  0  0  0  0  0  0  0  0  0
   -5.0801    3.9624  -22.3995 N   0  0  0  0  0  0  0  0  0  0  0  0
   -6.1672    4.9374  -22.7427 N   0  0  0  0  0  0  0  0  0  0  0  0
   -6.3219    6.3193  -22.1803 C   0  0  0  0  0  0  0  0  0  0  0  0
   -7.0724    4.2877  -23.7469 N   0  0  0  0  0  0  0  0  0  0  0  0
  2  1  1  0  0  0
  2  3  1  0  0  0
  3  4  1  0  0  0
  4 19  1  0  0  0
 19 20  2  0  0  0
 20 21  1  0  0  0
 21 22  2  0  0  0
 22 23  1  0  0  0
 23 24  2  0  0  0
 24 25  1  0  0  0
 25 26  2  0  0  0
 26 27  1  0  0  0
 27 28  2  0  0  0
  4  5  1  0  0  0
  5  6  2  0  0  0
  5  7  1  0  0  0
  7  8  1  0  0  0
  8  9  1  0  0  0
  9 29  1  0  0  0
 29 30  1  0  0  0
 30 31  1  0  0  0
 31 32  2  0  0  0
 32 33  1  0  0  0
 33 34  1  0  0  0
 33 35  1  0  0  0
  9 10  1  0  0  0
 10 11  2  0  0  0
 10 12  1  0  0  0
 12 13  2  0  0  0
 13 14  1  0  0  0
 14 15  2  0  0  0
 15 16  1  0  0  0
 15 17  1  0  0  0
 17 18  2  0  0  0
  7  2  1  0  0  0
 35 30  2  0  0  0
 18 12  1  0  0  0
 28 19  1  0  0  0
 18  7  1  0  0  0
 28 23  1  0  0  0
M  END
> <minimizedAffinity>
-7.82613

> <CNNscore>
0.2434445173

> <CNNaffinity>
6.3140439987

> <CNN_VS>
1.5371193886

> <CNNaffinity_variance>
0.2085426152

$$$$
