
     RDKit          2D

 23 26  0  0  0  0  0  0  0  0999 V2000
    3.0000    0.0000    0.0000 C   0  0  0  0  0  0  0  0  0  0  0  0
    1.5000    0.0000    0.0000 C   0  0  0  0  0  0  0  0  0  0  0  0
    0.7500   -1.2990    0.0000 C   0  0  0  0  0  0  0  0  0  0  0  0
   -0.7500   -1.2990    0.0000 O   0  0  0  0  0  0  0  0  0  0  0  0
   -1.5000    0.0000    0.0000 C   0  0  0  0  0  0  0  0  0  0  0  0
   -0.7500    1.2990    0.0000 C   0  0  0  0  0  0  0  0  0  0  0  0
    0.7500    1.2990    0.0000 C   0  0  0  0  0  0  0  0  0  0  0  0
   -2.2418    1.4558    0.0000 N   0  0  0  0  0  0  0  0  0  0  0  0
   -2.5537    2.9231    0.0000 C   0  0  0  0  0  0  0  0  0  0  0  0
   -3.9240    3.5332    0.0000 O   0  0  0  0  0  0  0  0  0  0  0  0
   -1.2546    3.6731    0.0000 N   0  0  0  0  0  0  0  0  0  0  0  0
   -1.0978    5.1648    0.0000 C   0  0  0  0  0  0  0  0  0  0  0  0
    0.2725    5.7749    0.0000 C   0  0  0  0  0  0  0  0  0  0  0  0
    0.4293    7.2667    0.0000 N   0  0  0  0  0  0  0  0  0  0  0  0
   -0.7842    8.1484    0.0000 C   0  0  0  0  0  0  0  0  0  0  0  0
   -2.1546    7.5383    0.0000 C   0  0  0  0  0  0  0  0  0  0  0  0
   -3.3681    8.4200    0.0000 C   0  0  0  0  0  0  0  0  0  0  0  0
   -4.7384    7.8099    0.0000 C   0  0  0  0  0  0  0  0  0  0  0  0
   -4.8952    6.3181    0.0000 C   0  0  0  0  0  0  0  0  0  0  0  0
   -3.6817    5.4364    0.0000 C   0  0  0  0  0  0  0  0  0  0  0  0
   -2.3113    6.0465    0.0000 C   0  0  0  0  0  0  0  0  0  0  0  0
   -0.1399    2.6694    0.0000 C   0  0  0  0  0  0  0  0  0  0  0  0
    1.3273    2.9812    0.0000 O   0  0  0  0  0  0  0  0  0  0  0  0
  2  1  1  6
  2  3  1  0
  3  4  1  0
  4  5  1  0
  6  5  1  1
  6  7  1  0
  6  8  1  0
  8  9  1  0
  9 10  2  0
  9 11  1  0
 11 12  1  0
 12 13  2  0
 13 14  1  0
 14 15  2  0
 15 16  1  0
 16 17  2  0
 17 18  1  0
 18 19  2  0
 19 20  1  0
 20 21  2  0
 11 22  1  0
 22 23  2  0
  7  2  1  0
 21 12  1  0
 22  6  1  0
 21 16  1  0
M  END
$$$$
