


 42 47  0  0  0  0  0  0  0  0999 V2000
   10.0762    0.4027   23.0108 N   0  0  0  0  0  0  0  0  0  0  0  0
    8.8861   -0.4964   22.8517 C   0  0  0  0  0  0  0  0  0  0  0  0
    8.8130   -1.7859   23.6143 C   0  0  0  0  0  0  0  0  0  0  0  0
    8.6010   -3.0991   24.3076 C   0  0  0  0  0  0  0  0  0  0  0  0
    9.1553   -3.8321   25.1024 O   0  0  0  0  0  0  0  0  0  0  0  0
    7.2829   -3.6544   23.8557 N   0  0  0  0  0  0  0  0  0  0  0  0
    6.6802   -2.6844   22.8832 C   0  0  0  0  0  0  0  0  0  0  0  0
    7.6258   -1.5296   22.7340 C   0  0  0  0  0  0  0  0  0  0  0  0
    9.9300   -2.1765   24.5362 C   0  0  0  0  0  0  0  0  0  0  0  0
    9.8569   -3.4660   25.2988 C   0  0  0  0  0  0  0  0  0  0  0  0
   10.9739   -3.8565   26.2206 C   0  0  0  0  0  0  0  0  0  0  0  0
   10.9009   -5.1461   26.9834 Cl  0  0  0  0  0  0  0  0  0  0  0  0
   12.1641   -2.9574   26.3798 C   0  0  0  0  0  0  0  0  0  0  0  0
   12.2372   -1.6679   25.6171 C   0  0  0  0  0  0  0  0  0  0  0  0
   11.1202   -1.2774   24.6953 C   0  0  0  0  0  0  0  0  0  0  0  0
   11.1932    0.0122   23.9326 C   0  0  0  0  0  0  0  0  0  0  0  0
   12.3833    0.9112   24.0918 O   0  0  0  0  0  0  0  0  0  0  0  0
    6.6744   -4.9519   24.2986 C   0  0  0  0  0  0  0  0  0  0  0  0
    7.2140   -6.2504   23.7763 C   0  0  0  0  0  0  0  0  0  0  0  0
    6.6055   -7.5479   24.2192 N   0  0  0  0  0  0  0  0  0  0  0  0
    5.4573   -7.5469   25.1845 C   0  0  0  0  0  0  0  0  0  0  0  0
    4.9177   -6.2484   25.7067 C   0  0  0  0  0  0  0  0  0  0  0  0
    3.7694   -6.2475   26.6720 C   0  0  0  0  0  0  0  0  0  0  0  0
    3.2298   -4.9489   27.1943 C   0  0  0  0  0  0  0  0  0  0  0  0
    3.8384   -3.6514   26.7513 C   0  0  0  0  0  0  0  0  0  0  0  0
    4.9866   -3.6524   25.7861 C   0  0  0  0  0  0  0  0  0  0  0  0
    5.5262   -4.9509   25.2638 C   0  0  0  0  0  0  0  0  0  0  0  0
   10.1493    1.6923   22.2481 C   0  0  0  0  0  0  0  0  0  0  0  0
    7.9397    4.7281   23.5332 C   0  0  0  0  0  0  0  0  0  0  0  0
    9.0558    3.7313   23.4299 N   0  0  0  0  0  0  0  0  0  0  0  0
    9.0331    2.6890   22.3515 C   0  0  0  0  0  0  0  0  0  0  0  0
    7.8942    2.6434   21.3763 O   0  0  0  0  0  0  0  0  0  0  0  0
    9.8033    3.7613   24.0699 H   0  0  0  0  0  0  0  0  0  0  0  0
    7.4204   -0.3293   21.8582 C   0  0  0  0  0  0  0  0  0  0  0  0
    7.2756   -0.4990   20.3750 N   0  0  0  0  0  0  0  0  0  0  0  0
    7.9057   -1.0722   19.8813 H   0  0  0  0  0  0  0  0  0  0  0  0
    6.1709    0.2046   19.6438 C   0  0  0  0  0  0  0  0  0  0  0  0
    5.0022    0.7583   20.4037 C   0  0  0  0  0  0  0  0  0  0  0  0
    3.8975    1.4618   19.6726 C   0  0  0  0  0  0  0  0  0  0  0  0
    3.9615    1.6117   18.1814 N   0  0  0  0  0  0  0  0  0  0  0  0
    5.1302    1.0581   17.4215 C   0  0  0  0  0  0  0  0  0  0  0  0
    6.2349    0.3545   18.1527 N   0  0  0  0  0  0  0  0  0  0  0  0
 29 30  1  0  0  0
 30 31  1  0  0  0
 31 32  2  0  0  0
 31 28  1  0  0  0
 28  1  1  0  0  0
  1  2  1  0  0  0
  3  2  1  0  0  0
  3  4  1  0  0  0
  4  5  2  0  0  0
  4  6  1  0  0  0
  6 18  1  0  0  0
 18 19  2  0  0  0
 19 20  1  0  0  0
 20 21  2  0  0  0
 21 22  1  0  0  0
 22 23  2  0  0  0
 23 24  1  0  0  0
 24 25  2  0  0  0
 25 26  1  0  0  0
 26 27  2  0  0  0
  6  7  1  0  0  0
  7  8  1  0  0  0
  8 34  1  0  0  0
 34 35  1  0  0  0
 35 37  1  0  0  0
 37 38  2  0  0  0
 38 39  1  0  0  0
 39 40  2  0  0  0
 40 41  1  0  0  0
 41 42  2  0  0  0
  3  9  1  0  0  0
  9 10  2  0  0  0
 10 11  1  0  0  0
 11 12  1  0  0  0
 11 13  2  0  0  0
 13 14  1  0  0  0
 14 15  2  0  0  0
 15 16  1  0  0  0
 16 17  2  0  0  0
 16  1  1  0  0  0
  8  3  1  0  0  0
 42 37  1  0  0  0
 15  9  1  0  0  0
 27 18  1  0  0  0
 27 22  1  0  0  0
 30 33  1  0  0  0
 35 36  1  0  0  0
M  END
> <minimizedAffinity>
-9.49888

> <CNNscore>
0.4563888907

> <CNNaffinity>
7.1422348022

> <CNN_VS>
3.2596366405

> <CNNaffinity_variance>
0.2326018512

$$$$



 42 47  0  0  0  0  0  0  0  0999 V2000
   10.5767    0.5033   22.9287 N   0  0  0  0  0  0  0  0  0  0  0  0
    9.2374   -0.1722   22.9306 C   0  0  0  0  0  0  0  0  0  0  0  0
    9.0157   -1.3958   23.7695 C   0  0  0  0  0  0  0  0  0  0  0  0
    8.6470   -2.6204   24.5533 C   0  0  0  0  0  0  0  0  0  0  0  0
    9.1406   -3.4088   25.3350 O   0  0  0  0  0  0  0  0  0  0  0  0
    7.2133   -2.9467   24.2561 N   0  0  0  0  0  0  0  0  0  0  0  0
    6.6961   -1.9238   23.2887 C   0  0  0  0  0  0  0  0  0  0  0  0
    7.8100   -0.9653   22.9879 C   0  0  0  0  0  0  0  0  0  0  0  0
   10.1334   -1.9440   24.6064 C   0  0  0  0  0  0  0  0  0  0  0  0
    9.9117   -3.1676   25.4452 C   0  0  0  0  0  0  0  0  0  0  0  0
   11.0293   -3.7157   26.2821 C   0  0  0  0  0  0  0  0  0  0  0  0
   10.8077   -4.9393   27.1210 Cl  0  0  0  0  0  0  0  0  0  0  0  0
   12.3686   -3.0402   26.2802 C   0  0  0  0  0  0  0  0  0  0  0  0
   12.5903   -1.8166   25.4414 C   0  0  0  0  0  0  0  0  0  0  0  0
   11.4727   -1.2685   24.6045 C   0  0  0  0  0  0  0  0  0  0  0  0
   11.6943   -0.0448   23.7656 C   0  0  0  0  0  0  0  0  0  0  0  0
   13.0336    0.6306   23.7637 O   0  0  0  0  0  0  0  0  0  0  0  0
    6.4339   -4.0945   24.8264 C   0  0  0  0  0  0  0  0  0  0  0  0
    6.3475   -5.3895   24.0745 C   0  0  0  0  0  0  0  0  0  0  0  0
    5.5680   -6.5373   24.6447 N   0  0  0  0  0  0  0  0  0  0  0  0
    4.8751   -6.3899   25.9669 C   0  0  0  0  0  0  0  0  0  0  0  0
    4.9615   -5.0948   26.7188 C   0  0  0  0  0  0  0  0  0  0  0  0
    4.2685   -4.9475   28.0410 C   0  0  0  0  0  0  0  0  0  0  0  0
    4.3550   -3.6524   28.7928 C   0  0  0  0  0  0  0  0  0  0  0  0
    5.1344   -2.5047   28.2225 C   0  0  0  0  0  0  0  0  0  0  0  0
    5.8274   -2.6520   26.9004 C   0  0  0  0  0  0  0  0  0  0  0  0
    5.7409   -3.9471   26.1485 C   0  0  0  0  0  0  0  0  0  0  0  0
   10.7983    1.7269   22.0899 C   0  0  0  0  0  0  0  0  0  0  0  0
   10.8249    5.6203   22.8587 C   0  0  0  0  0  0  0  0  0  0  0  0
   11.2426    4.2738   22.3462 N   0  0  0  0  0  0  0  0  0  0  0  0
   10.3806    3.0733   22.6024 C   0  0  0  0  0  0  0  0  0  0  0  0
    9.1009    3.2192   23.3713 O   0  0  0  0  0  0  0  0  0  0  0  0
   12.0825    4.1781   21.8416 H   0  0  0  0  0  0  0  0  0  0  0  0
    7.7318    0.2163   22.0671 C   0  0  0  0  0  0  0  0  0  0  0  0
    7.6649    0.0078   20.5833 N   0  0  0  0  0  0  0  0  0  0  0  0
    8.4072   -0.4380   20.1149 H   0  0  0  0  0  0  0  0  0  0  0  0
    6.4669    0.4784   19.8130 C   0  0  0  0  0  0  0  0  0  0  0  0
    5.3471    1.1800   20.5228 C   0  0  0  0  0  0  0  0  0  0  0  0
    4.1491    1.6506   19.7526 C   0  0  0  0  0  0  0  0  0  0  0  0
    4.0709    1.4197   18.2725 N   0  0  0  0  0  0  0  0  0  0  0  0
    5.1907    0.7181   17.5627 C   0  0  0  0  0  0  0  0  0  0  0  0
    6.3887    0.2475   18.3330 N   0  0  0  0  0  0  0  0  0  0  0  0
 29 30  1  0  0  0
 30 31  1  0  0  0
 31 32  2  0  0  0
 31 28  1  0  0  0
 28  1  1  0  0  0
  1  2  1  0  0  0
  3  2  1  0  0  0
  3  4  1  0  0  0
  4  5  2  0  0  0
  4  6  1  0  0  0
  6 18  1  0  0  0
 18 19  2  0  0  0
 19 20  1  0  0  0
 20 21  2  0  0  0
 21 22  1  0  0  0
 22 23  2  0  0  0
 23 24  1  0  0  0
 24 25  2  0  0  0
 25 26  1  0  0  0
 26 27  2  0  0  0
  6  7  1  0  0  0
  7  8  1  0  0  0
  8 34  1  0  0  0
 34 35  1  0  0  0
 35 37  1  0  0  0
 37 38  2  0  0  0
 38 39  1  0  0  0
 39 40  2  0  0  0
 40 41  1  0  0  0
 41 42  2  0  0  0
  3  9  1  0  0  0
  9 10  2  0  0  0
 10 11  1  0  0  0
 11 12  1  0  0  0
 11 13  2  0  0  0
 13 14  1  0  0  0
 14 15  2  0  0  0
 15 16  1  0  0  0
 16 17  2  0  0  0
 16  1  1  0  0  0
  8  3  1  0  0  0
 42 37  1  0  0  0
 15  9  1  0  0  0
 27 18  1  0  0  0
 27 22  1  0  0  0
 30 33  1  0  0  0
 35 36  1  0  0  0
M  END
> <minimizedAffinity>
-8.82919

> <CNNscore>
0.2651435733

> <CNNaffinity>
7.0309915543

> <CNN_VS>
1.8642221689

> <CNNaffinity_variance>
0.1197861880

$$$$



 42 47  0  0  0  0  0  0  0  0999 V2000
    6.9158   -3.6914   23.0151 N   0  0  0  0  0  0  0  0  0  0  0  0
    7.1596   -2.3053   22.4963 C   0  0  0  0  0  0  0  0  0  0  0  0
    8.3405   -1.5190   22.9835 C   0  0  0  0  0  0  0  0  0  0  0  0
    9.4730   -0.6172   23.3761 C   0  0  0  0  0  0  0  0  0  0  0  0
   10.4473   -0.6086   24.1020 O   0  0  0  0  0  0  0  0  0  0  0  0
    9.3271    0.6679   22.6163 N   0  0  0  0  0  0  0  0  0  0  0  0
    8.1043    0.5603   21.7541 C   0  0  0  0  0  0  0  0  0  0  0  0
    7.4946   -0.7913   21.9811 C   0  0  0  0  0  0  0  0  0  0  0  0
    9.2775   -2.1189   23.9896 C   0  0  0  0  0  0  0  0  0  0  0  0
   10.4584   -1.3327   24.4768 C   0  0  0  0  0  0  0  0  0  0  0  0
   11.3954   -1.9326   25.4828 C   0  0  0  0  0  0  0  0  0  0  0  0
   12.5763   -1.1464   25.9701 Cl  0  0  0  0  0  0  0  0  0  0  0  0
   11.1515   -3.3188   26.0016 C   0  0  0  0  0  0  0  0  0  0  0  0
    9.9707   -4.1050   25.5144 C   0  0  0  0  0  0  0  0  0  0  0  0
    9.0337   -3.5051   24.5084 C   0  0  0  0  0  0  0  0  0  0  0  0
    7.8528   -4.2913   24.0211 C   0  0  0  0  0  0  0  0  0  0  0  0
    7.6089   -5.6775   24.5399 O   0  0  0  0  0  0  0  0  0  0  0  0
   10.2431    1.8525   22.7033 C   0  0  0  0  0  0  0  0  0  0  0  0
   11.7255    1.6656   22.5715 C   0  0  0  0  0  0  0  0  0  0  0  0
   12.6416    2.8502   22.6585 N   0  0  0  0  0  0  0  0  0  0  0  0
   12.0751    4.2217   22.8775 C   0  0  0  0  0  0  0  0  0  0  0  0
   10.5926    4.4086   23.0094 C   0  0  0  0  0  0  0  0  0  0  0  0
   10.0261    5.7803   23.2283 C   0  0  0  0  0  0  0  0  0  0  0  0
    8.5437    5.9671   23.3602 C   0  0  0  0  0  0  0  0  0  0  0  0
    7.6277    4.7825   23.2731 C   0  0  0  0  0  0  0  0  0  0  0  0
    8.1941    3.4109   23.0542 C   0  0  0  0  0  0  0  0  0  0  0  0
    9.6766    3.2240   22.9223 C   0  0  0  0  0  0  0  0  0  0  0  0
    5.7349   -4.4776   22.5278 C   0  0  0  0  0  0  0  0  0  0  0  0
    3.3212   -7.1760   24.1535 C   0  0  0  0  0  0  0  0  0  0  0  0
    4.2232   -6.4905   23.1703 N   0  0  0  0  0  0  0  0  0  0  0  0
    4.8329   -5.1631   23.5110 C   0  0  0  0  0  0  0  0  0  0  0  0
    4.5408   -4.5211   24.8348 O   0  0  0  0  0  0  0  0  0  0  0  0
    4.4149   -6.9119   22.3014 H   0  0  0  0  0  0  0  0  0  0  0  0
    6.2563   -1.3219   21.3215 C   0  0  0  0  0  0  0  0  0  0  0  0
    5.7573   -0.6989   20.0516 N   0  0  0  0  0  0  0  0  0  0  0  0
    6.1081   -1.0027   19.1833 H   0  0  0  0  0  0  0  0  0  0  0  0
    4.7237    0.3869   20.1045 C   0  0  0  0  0  0  0  0  0  0  0  0
    4.3374    1.1162   18.8520 C   0  0  0  0  0  0  0  0  0  0  0  0
    3.3039    2.2020   18.9048 C   0  0  0  0  0  0  0  0  0  0  0  0
    2.6566    2.5585   20.2102 N   0  0  0  0  0  0  0  0  0  0  0  0
    3.0429    1.8291   21.4627 C   0  0  0  0  0  0  0  0  0  0  0  0
    4.0765    0.7433   21.4098 N   0  0  0  0  0  0  0  0  0  0  0  0
 29 30  1  0  0  0
 30 31  1  0  0  0
 31 32  2  0  0  0
 31 28  1  0  0  0
 28  1  1  0  0  0
  1  2  1  0  0  0
  3  2  1  0  0  0
  3  4  1  0  0  0
  4  5  2  0  0  0
  4  6  1  0  0  0
  6 18  1  0  0  0
 18 19  2  0  0  0
 19 20  1  0  0  0
 20 21  2  0  0  0
 21 22  1  0  0  0
 22 23  2  0  0  0
 23 24  1  0  0  0
 24 25  2  0  0  0
 25 26  1  0  0  0
 26 27  2  0  0  0
  6  7  1  0  0  0
  7  8  1  0  0  0
  8 34  1  0  0  0
 34 35  1  0  0  0
 35 37  1  0  0  0
 37 38  2  0  0  0
 38 39  1  0  0  0
 39 40  2  0  0  0
 40 41  1  0  0  0
 41 42  2  0  0  0
  3  9  1  0  0  0
  9 10  2  0  0  0
 10 11  1  0  0  0
 11 12  1  0  0  0
 11 13  2  0  0  0
 13 14  1  0  0  0
 14 15  2  0  0  0
 15 16  1  0  0  0
 16 17  2  0  0  0
 16  1  1  0  0  0
  8  3  1  0  0  0
 42 37  1  0  0  0
 15  9  1  0  0  0
 27 18  1  0  0  0
 27 22  1  0  0  0
 30 33  1  0  0  0
 35 36  1  0  0  0
M  END
> <minimizedAffinity>
-8.76913

> <CNNscore>
0.2013778687

> <CNNaffinity>
6.7795248032

> <CNN_VS>
1.3652462959

> <CNNaffinity_variance>
0.1573590636

$$$$



 42 47  0  0  0  0  0  0  0  0999 V2000
    9.6466    0.6388   22.9610 N   0  0  0  0  0  0  0  0  0  0  0  0
    8.4797   -0.2986   22.8625 C   0  0  0  0  0  0  0  0  0  0  0  0
    8.5095   -1.6119   23.5864 C   0  0  0  0  0  0  0  0  0  0  0  0
    8.3965   -2.9520   24.2508 C   0  0  0  0  0  0  0  0  0  0  0  0
    9.0346   -3.6873   24.9778 O   0  0  0  0  0  0  0  0  0  0  0  0
    7.0679   -3.5421   23.8813 N   0  0  0  0  0  0  0  0  0  0  0  0
    6.3597   -2.5667   22.9885 C   0  0  0  0  0  0  0  0  0  0  0  0
    7.2507   -1.3738   22.8063 C   0  0  0  0  0  0  0  0  0  0  0  0
    9.7063   -1.9880   24.4089 C   0  0  0  0  0  0  0  0  0  0  0  0
    9.7361   -3.3014   25.1328 C   0  0  0  0  0  0  0  0  0  0  0  0
   10.9328   -3.6774   25.9552 C   0  0  0  0  0  0  0  0  0  0  0  0
   10.9627   -4.9908   26.6792 Cl  0  0  0  0  0  0  0  0  0  0  0  0
   12.0997   -2.7401   26.0537 C   0  0  0  0  0  0  0  0  0  0  0  0
   12.0699   -1.4267   25.3298 C   0  0  0  0  0  0  0  0  0  0  0  0
   10.8732   -1.0507   24.5074 C   0  0  0  0  0  0  0  0  0  0  0  0
   10.8433    0.2628   23.7834 C   0  0  0  0  0  0  0  0  0  0  0  0
   12.0102    1.2001   23.8819 O   0  0  0  0  0  0  0  0  0  0  0  0
    6.5401   -4.8737   24.3264 C   0  0  0  0  0  0  0  0  0  0  0  0
    7.0801   -6.1352   23.7204 C   0  0  0  0  0  0  0  0  0  0  0  0
    6.5523   -7.4668   24.1655 N   0  0  0  0  0  0  0  0  0  0  0  0
    5.4846   -7.5371   25.2166 C   0  0  0  0  0  0  0  0  0  0  0  0
    4.9446   -6.2756   25.8226 C   0  0  0  0  0  0  0  0  0  0  0  0
    3.8767   -6.3459   26.8738 C   0  0  0  0  0  0  0  0  0  0  0  0
    3.3368   -5.0845   27.4798 C   0  0  0  0  0  0  0  0  0  0  0  0
    3.8645   -3.7528   27.0347 C   0  0  0  0  0  0  0  0  0  0  0  0
    4.9323   -3.6826   25.9835 C   0  0  0  0  0  0  0  0  0  0  0  0
    5.4723   -4.9440   25.3775 C   0  0  0  0  0  0  0  0  0  0  0  0
    9.6167    1.9522   22.2370 C   0  0  0  0  0  0  0  0  0  0  0  0
   11.3940    5.3668   23.2023 C   0  0  0  0  0  0  0  0  0  0  0  0
   10.3215    4.3483   22.9526 N   0  0  0  0  0  0  0  0  0  0  0  0
   10.6892    2.9708   22.4867 C   0  0  0  0  0  0  0  0  0  0  0  0
   12.1295    2.6117   22.2703 O   0  0  0  0  0  0  0  0  0  0  0  0
    9.3762    4.5839   23.0946 H   0  0  0  0  0  0  0  0  0  0  0  0
    6.9377   -0.1565   21.9876 C   0  0  0  0  0  0  0  0  0  0  0  0
    6.7659   -0.2753   20.5023 N   0  0  0  0  0  0  0  0  0  0  0  0
    7.3622   -0.8620   19.9832 H   0  0  0  0  0  0  0  0  0  0  0  0
    5.6856    0.4996   19.8078 C   0  0  0  0  0  0  0  0  0  0  0  0
    5.6092    0.5023   18.3097 C   0  0  0  0  0  0  0  0  0  0  0  0
    4.5290    1.2772   17.6152 C   0  0  0  0  0  0  0  0  0  0  0  0
    3.5249    2.0495   18.4187 N   0  0  0  0  0  0  0  0  0  0  0  0
    3.6013    2.0468   19.9168 C   0  0  0  0  0  0  0  0  0  0  0  0
    4.6816    1.2719   20.6113 N   0  0  0  0  0  0  0  0  0  0  0  0
 29 30  1  0  0  0
 30 31  1  0  0  0
 31 32  2  0  0  0
 31 28  1  0  0  0
 28  1  1  0  0  0
  1  2  1  0  0  0
  3  2  1  0  0  0
  3  4  1  0  0  0
  4  5  2  0  0  0
  4  6  1  0  0  0
  6 18  1  0  0  0
 18 19  2  0  0  0
 19 20  1  0  0  0
 20 21  2  0  0  0
 21 22  1  0  0  0
 22 23  2  0  0  0
 23 24  1  0  0  0
 24 25  2  0  0  0
 25 26  1  0  0  0
 26 27  2  0  0  0
  6  7  1  0  0  0
  7  8  1  0  0  0
  8 34  1  0  0  0
 34 35  1  0  0  0
 35 37  1  0  0  0
 37 38  2  0  0  0
 38 39  1  0  0  0
 39 40  2  0  0  0
 40 41  1  0  0  0
 41 42  2  0  0  0
  3  9  1  0  0  0
  9 10  2  0  0  0
 10 11  1  0  0  0
 11 12  1  0  0  0
 11 13  2  0  0  0
 13 14  1  0  0  0
 14 15  2  0  0  0
 15 16  1  0  0  0
 16 17  2  0  0  0
 16  1  1  0  0  0
  8  3  1  0  0  0
 42 37  1  0  0  0
 15  9  1  0  0  0
 27 18  1  0  0  0
 27 22  1  0  0  0
 30 33  1  0  0  0
 35 36  1  0  0  0
M  END
> <minimizedAffinity>
-9.20391

> <CNNscore>
0.2004436255

> <CNNaffinity>
6.9003868103

> <CNN_VS>
1.3831385374

> <CNNaffinity_variance>
0.1142307967

$$$$



 42 47  0  0  0  0  0  0  0  0999 V2000
   10.1204    0.8342   23.2260 N   0  0  0  0  0  0  0  0  0  0  0  0
    8.7410    0.3178   23.5099 C   0  0  0  0  0  0  0  0  0  0  0  0
    8.5523   -0.8491   24.4333 C   0  0  0  0  0  0  0  0  0  0  0  0
    8.2095   -2.0015   25.3302 C   0  0  0  0  0  0  0  0  0  0  0  0
    8.7549   -2.8202   26.0434 O   0  0  0  0  0  0  0  0  0  0  0  0
    6.7189   -2.1685   25.3213 N   0  0  0  0  0  0  0  0  0  0  0  0
    6.1404   -1.1192   24.4189 C   0  0  0  0  0  0  0  0  0  0  0  0
    7.2735   -0.3038   23.8701 C   0  0  0  0  0  0  0  0  0  0  0  0
    9.7431   -1.4996   25.0729 C   0  0  0  0  0  0  0  0  0  0  0  0
    9.5544   -2.6665   25.9964 C   0  0  0  0  0  0  0  0  0  0  0  0
   10.7451   -3.3169   26.6360 C   0  0  0  0  0  0  0  0  0  0  0  0
   10.5564   -4.4838   27.5595 Cl  0  0  0  0  0  0  0  0  0  0  0  0
   12.1245   -2.8005   26.3521 C   0  0  0  0  0  0  0  0  0  0  0  0
   12.3132   -1.6336   25.4287 C   0  0  0  0  0  0  0  0  0  0  0  0
   11.1225   -0.9832   24.7891 C   0  0  0  0  0  0  0  0  0  0  0  0
   11.3111    0.1838   23.8656 C   0  0  0  0  0  0  0  0  0  0  0  0
   12.6905    0.7002   23.5818 O   0  0  0  0  0  0  0  0  0  0  0  0
    5.9430   -3.2030   26.0814 C   0  0  0  0  0  0  0  0  0  0  0  0
    5.5776   -4.5003   25.4228 C   0  0  0  0  0  0  0  0  0  0  0  0
    4.8017   -5.5348   26.1829 N   0  0  0  0  0  0  0  0  0  0  0  0
    4.3913   -5.2721   27.6015 C   0  0  0  0  0  0  0  0  0  0  0  0
    4.7567   -3.9749   28.2601 C   0  0  0  0  0  0  0  0  0  0  0  0
    4.3462   -3.7122   29.6788 C   0  0  0  0  0  0  0  0  0  0  0  0
    4.7117   -2.4149   30.3372 C   0  0  0  0  0  0  0  0  0  0  0  0
    5.4875   -1.3804   29.5771 C   0  0  0  0  0  0  0  0  0  0  0  0
    5.8980   -1.6431   28.1585 C   0  0  0  0  0  0  0  0  0  0  0  0
    5.5326   -2.9403   27.5000 C   0  0  0  0  0  0  0  0  0  0  0  0
   10.3091    2.0011   22.3025 C   0  0  0  0  0  0  0  0  0  0  0  0
    9.3708    5.6807   23.4558 C   0  0  0  0  0  0  0  0  0  0  0  0
    9.2431    4.2947   22.8966 N   0  0  0  0  0  0  0  0  0  0  0  0
   10.4368    3.3871   22.8618 C   0  0  0  0  0  0  0  0  0  0  0  0
   11.7583    3.8655   23.3862 O   0  0  0  0  0  0  0  0  0  0  0  0
    8.3758    3.9808   22.5524 H   0  0  0  0  0  0  0  0  0  0  0  0
    7.1495    0.8536   22.9241 C   0  0  0  0  0  0  0  0  0  0  0  0
    5.8532    1.1054   22.2127 N   0  0  0  0  0  0  0  0  0  0  0  0
    5.0766    1.4483   22.7113 H   0  0  0  0  0  0  0  0  0  0  0  0
    5.7400    0.8347   20.7417 C   0  0  0  0  0  0  0  0  0  0  0  0
    4.6051    1.4220   19.9562 C   0  0  0  0  0  0  0  0  0  0  0  0
    4.4919    1.1514   18.4852 C   0  0  0  0  0  0  0  0  0  0  0  0
    5.5136    0.2934   17.7996 N   0  0  0  0  0  0  0  0  0  0  0  0
    6.6486   -0.2938   18.5851 C   0  0  0  0  0  0  0  0  0  0  0  0
    6.7618   -0.0232   20.0561 N   0  0  0  0  0  0  0  0  0  0  0  0
 29 30  1  0  0  0
 30 31  1  0  0  0
 31 32  2  0  0  0
 31 28  1  0  0  0
 28  1  1  0  0  0
  1  2  1  0  0  0
  3  2  1  0  0  0
  3  4  1  0  0  0
  4  5  2  0  0  0
  4  6  1  0  0  0
  6 18  1  0  0  0
 18 19  2  0  0  0
 19 20  1  0  0  0
 20 21  2  0  0  0
 21 22  1  0  0  0
 22 23  2  0  0  0
 23 24  1  0  0  0
 24 25  2  0  0  0
 25 26  1  0  0  0
 26 27  2  0  0  0
  6  7  1  0  0  0
  7  8  1  0  0  0
  8 34  1  0  0  0
 34 35  1  0  0  0
 35 37  1  0  0  0
 37 38  2  0  0  0
 38 39  1  0  0  0
 39 40  2  0  0  0
 40 41  1  0  0  0
 41 42  2  0  0  0
  3  9  1  0  0  0
  9 10  2  0  0  0
 10 11  1  0  0  0
 11 12  1  0  0  0
 11 13  2  0  0  0
 13 14  1  0  0  0
 14 15  2  0  0  0
 15 16  1  0  0  0
 16 17  2  0  0  0
 16  1  1  0  0  0
  8  3  1  0  0  0
 42 37  1  0  0  0
 15  9  1  0  0  0
 27 18  1  0  0  0
 27 22  1  0  0  0
 30 33  1  0  0  0
 35 36  1  0  0  0
M  END
> <minimizedAffinity>
-8.67332

> <CNNscore>
0.1930557340

> <CNNaffinity>
6.7060875893

> <CNN_VS>
1.2946486473

> <CNNaffinity_variance>
0.1737252772

$$$$



 42 47  0  0  0  0  0  0  0  0999 V2000
    6.6090   -3.0218   24.0885 N   0  0  0  0  0  0  0  0  0  0  0  0
    6.8141   -1.6369   23.5500 C   0  0  0  0  0  0  0  0  0  0  0  0
    8.1524   -0.9721   23.6803 C   0  0  0  0  0  0  0  0  0  0  0  0
    9.4273   -0.1839   23.7370 C   0  0  0  0  0  0  0  0  0  0  0  0
   10.5688   -0.2879   24.1402 O   0  0  0  0  0  0  0  0  0  0  0  0
    9.1815    1.1431   23.0824 N   0  0  0  0  0  0  0  0  0  0  0  0
    7.7546    1.1751   22.6210 C   0  0  0  0  0  0  0  0  0  0  0  0
    7.1186   -0.1322   22.9906 C   0  0  0  0  0  0  0  0  0  0  0  0
    9.2857   -1.6922   24.3491 C   0  0  0  0  0  0  0  0  0  0  0  0
   10.6239   -1.0274   24.4794 C   0  0  0  0  0  0  0  0  0  0  0  0
   11.7571   -1.7475   25.1482 C   0  0  0  0  0  0  0  0  0  0  0  0
   13.0955   -1.0828   25.2785 Cl  0  0  0  0  0  0  0  0  0  0  0  0
   11.5520   -3.1324   25.6866 C   0  0  0  0  0  0  0  0  0  0  0  0
   10.2137   -3.7972   25.5564 C   0  0  0  0  0  0  0  0  0  0  0  0
    9.0806   -3.0771   24.8876 C   0  0  0  0  0  0  0  0  0  0  0  0
    7.7422   -3.7419   24.7573 C   0  0  0  0  0  0  0  0  0  0  0  0
    7.5371   -5.1268   25.2957 O   0  0  0  0  0  0  0  0  0  0  0  0
   10.1862    2.2448   22.9179 C   0  0  0  0  0  0  0  0  0  0  0  0
   11.6235    1.9143   22.6441 C   0  0  0  0  0  0  0  0  0  0  0  0
   12.6282    3.0159   22.4797 N   0  0  0  0  0  0  0  0  0  0  0  0
   12.1955    4.4480   22.5890 C   0  0  0  0  0  0  0  0  0  0  0  0
   10.7582    4.7784   22.8628 C   0  0  0  0  0  0  0  0  0  0  0  0
   10.3256    6.2106   22.9722 C   0  0  0  0  0  0  0  0  0  0  0  0
    8.8883    6.5410   23.2459 C   0  0  0  0  0  0  0  0  0  0  0  0
    7.8836    5.4393   23.4104 C   0  0  0  0  0  0  0  0  0  0  0  0
    8.3162    4.0073   23.3010 C   0  0  0  0  0  0  0  0  0  0  0  0
    9.7535    3.6768   23.0273 C   0  0  0  0  0  0  0  0  0  0  0  0
    5.2706   -3.6866   23.9582 C   0  0  0  0  0  0  0  0  0  0  0  0
    5.7136   -6.4266   21.1217 C   0  0  0  0  0  0  0  0  0  0  0  0
    5.8409   -5.1393   21.8811 N   0  0  0  0  0  0  0  0  0  0  0  0
    5.1434   -4.9738   23.1987 C   0  0  0  0  0  0  0  0  0  0  0  0
    4.3187   -6.0956   23.7569 O   0  0  0  0  0  0  0  0  0  0  0  0
    6.3822   -4.4031   21.5148 H   0  0  0  0  0  0  0  0  0  0  0  0
    5.6981   -0.5297   22.7182 C   0  0  0  0  0  0  0  0  0  0  0  0
    4.8211    0.3498   21.8773 N   0  0  0  0  0  0  0  0  0  0  0  0
    4.1653    0.9456   22.3064 H   0  0  0  0  0  0  0  0  0  0  0  0
    4.9434    0.3218   20.3825 C   0  0  0  0  0  0  0  0  0  0  0  0
    4.2391    1.3541   19.5530 C   0  0  0  0  0  0  0  0  0  0  0  0
    4.3613    1.3262   18.0583 C   0  0  0  0  0  0  0  0  0  0  0  0
    5.1879    0.2658   17.3930 N   0  0  0  0  0  0  0  0  0  0  0  0
    5.8922   -0.7665   18.2226 C   0  0  0  0  0  0  0  0  0  0  0  0
    5.7700   -0.7385   19.7174 N   0  0  0  0  0  0  0  0  0  0  0  0
 29 30  1  0  0  0
 30 31  1  0  0  0
 31 32  2  0  0  0
 31 28  1  0  0  0
 28  1  1  0  0  0
  1  2  1  0  0  0
  3  2  1  0  0  0
  3  4  1  0  0  0
  4  5  2  0  0  0
  4  6  1  0  0  0
  6 18  1  0  0  0
 18 19  2  0  0  0
 19 20  1  0  0  0
 20 21  2  0  0  0
 21 22  1  0  0  0
 22 23  2  0  0  0
 23 24  1  0  0  0
 24 25  2  0  0  0
 25 26  1  0  0  0
 26 27  2  0  0  0
  6  7  1  0  0  0
  7  8  1  0  0  0
  8 34  1  0  0  0
 34 35  1  0  0  0
 35 37  1  0  0  0
 37 38  2  0  0  0
 38 39  1  0  0  0
 39 40  2  0  0  0
 40 41  1  0  0  0
 41 42  2  0  0  0
  3  9  1  0  0  0
  9 10  2  0  0  0
 10 11  1  0  0  0
 11 12  1  0  0  0
 11 13  2  0  0  0
 13 14  1  0  0  0
 14 15  2  0  0  0
 15 16  1  0  0  0
 16 17  2  0  0  0
 16  1  1  0  0  0
  8  3  1  0  0  0
 42 37  1  0  0  0
 15  9  1  0  0  0
 27 18  1  0  0  0
 27 22  1  0  0  0
 30 33  1  0  0  0
 35 36  1  0  0  0
M  END
> <minimizedAffinity>
-8.63207

> <CNNscore>
0.1822866946

> <CNNaffinity>
6.8649263382

> <CNN_VS>
1.2513847351

> <CNNaffinity_variance>
0.1536271125

$$$$



 42 47  0  0  0  0  0  0  0  0999 V2000
   10.6905    1.5720   22.7632 N   0  0  0  0  0  0  0  0  0  0  0  0
    9.3037    1.1882   23.1869 C   0  0  0  0  0  0  0  0  0  0  0  0
    9.0965    0.0221   24.1073 C   0  0  0  0  0  0  0  0  0  0  0  0
    8.7355   -1.1136   25.0183 C   0  0  0  0  0  0  0  0  0  0  0  0
    9.2675   -2.0010   25.6555 O   0  0  0  0  0  0  0  0  0  0  0  0
    7.2432   -1.1311   25.1685 N   0  0  0  0  0  0  0  0  0  0  0  0
    6.6818   -0.0062   24.3503 C   0  0  0  0  0  0  0  0  0  0  0  0
    7.8272    0.7065   23.6945 C   0  0  0  0  0  0  0  0  0  0  0  0
   10.2761   -0.7603   24.6041 C   0  0  0  0  0  0  0  0  0  0  0  0
   10.0688   -1.9264   25.5245 C   0  0  0  0  0  0  0  0  0  0  0  0
   11.2484   -2.7086   26.0211 C   0  0  0  0  0  0  0  0  0  0  0  0
   11.0412   -3.8748   26.9416 Cl  0  0  0  0  0  0  0  0  0  0  0  0
   12.6351   -2.3248   25.5974 C   0  0  0  0  0  0  0  0  0  0  0  0
   12.8424   -1.1587   24.6770 C   0  0  0  0  0  0  0  0  0  0  0  0
   11.6628   -0.3764   24.1803 C   0  0  0  0  0  0  0  0  0  0  0  0
   11.8700    0.7897   23.2598 C   0  0  0  0  0  0  0  0  0  0  0  0
   13.2568    1.1736   22.8361 O   0  0  0  0  0  0  0  0  0  0  0  0
    6.4512   -2.1028   25.9923 C   0  0  0  0  0  0  0  0  0  0  0  0
    6.0563   -1.7492   27.3955 C   0  0  0  0  0  0  0  0  0  0  0  0
    5.2644   -2.7210   28.2193 N   0  0  0  0  0  0  0  0  0  0  0  0
    4.8674   -4.0463   27.6398 C   0  0  0  0  0  0  0  0  0  0  0  0
    5.2623   -4.3999   26.2365 C   0  0  0  0  0  0  0  0  0  0  0  0
    4.8653   -5.7253   25.6570 C   0  0  0  0  0  0  0  0  0  0  0  0
    5.2602   -6.0788   24.2538 C   0  0  0  0  0  0  0  0  0  0  0  0
    6.0521   -5.1071   23.4300 C   0  0  0  0  0  0  0  0  0  0  0  0
    6.4491   -3.7817   24.0095 C   0  0  0  0  0  0  0  0  0  0  0  0
    6.0542   -3.4282   25.4128 C   0  0  0  0  0  0  0  0  0  0  0  0
   10.8977    2.7382   21.8427 C   0  0  0  0  0  0  0  0  0  0  0  0
   10.7272    6.3960   23.3727 C   0  0  0  0  0  0  0  0  0  0  0  0
   10.2976    5.0701   22.8184 N   0  0  0  0  0  0  0  0  0  0  0  0
   11.3273    4.0641   22.3970 C   0  0  0  0  0  0  0  0  0  0  0  0
   12.7868    4.3840   22.5301 O   0  0  0  0  0  0  0  0  0  0  0  0
    9.3397    4.8601   22.7310 H   0  0  0  0  0  0  0  0  0  0  0  0
    7.7218    1.8950   22.7854 C   0  0  0  0  0  0  0  0  0  0  0  0
    6.4374    2.1753   22.0633 N   0  0  0  0  0  0  0  0  0  0  0  0
    5.7907    2.8153   22.4396 H   0  0  0  0  0  0  0  0  0  0  0  0
    6.1382    1.4808   20.7679 C   0  0  0  0  0  0  0  0  0  0  0  0
    4.8375    1.7331   20.0646 C   0  0  0  0  0  0  0  0  0  0  0  0
    4.5383    1.0386   18.7693 C   0  0  0  0  0  0  0  0  0  0  0  0
    5.5397    0.0917   18.1771 N   0  0  0  0  0  0  0  0  0  0  0  0
    6.8404   -0.1605   18.8803 C   0  0  0  0  0  0  0  0  0  0  0  0
    7.1396    0.5340   20.1757 N   0  0  0  0  0  0  0  0  0  0  0  0
 29 30  1  0  0  0
 30 31  1  0  0  0
 31 32  2  0  0  0
 31 28  1  0  0  0
 28  1  1  0  0  0
  1  2  1  0  0  0
  3  2  1  0  0  0
  3  4  1  0  0  0
  4  5  2  0  0  0
  4  6  1  0  0  0
  6 18  1  0  0  0
 18 19  2  0  0  0
 19 20  1  0  0  0
 20 21  2  0  0  0
 21 22  1  0  0  0
 22 23  2  0  0  0
 23 24  1  0  0  0
 24 25  2  0  0  0
 25 26  1  0  0  0
 26 27  2  0  0  0
  6  7  1  0  0  0
  7  8  1  0  0  0
  8 34  1  0  0  0
 34 35  1  0  0  0
 35 37  1  0  0  0
 37 38  2  0  0  0
 38 39  1  0  0  0
 39 40  2  0  0  0
 40 41  1  0  0  0
 41 42  2  0  0  0
  3  9  1  0  0  0
  9 10  2  0  0  0
 10 11  1  0  0  0
 11 12  1  0  0  0
 11 13  2  0  0  0
 13 14  1  0  0  0
 14 15  2  0  0  0
 15 16  1  0  0  0
 16 17  2  0  0  0
 16  1  1  0  0  0
  8  3  1  0  0  0
 42 37  1  0  0  0
 15  9  1  0  0  0
 27 18  1  0  0  0
 27 22  1  0  0  0
 30 33  1  0  0  0
 35 36  1  0  0  0
M  END
> <minimizedAffinity>
-9.27232

> <CNNscore>
0.1560273916

> <CNNaffinity>
6.9820008278

> <CNN_VS>
1.0893833637

> <CNNaffinity_variance>
0.1116146594

$$$$



 42 47  0  0  0  0  0  0  0  0999 V2000
    5.8268    2.3060   21.6408 N   0  0  0  0  0  0  0  0  0  0  0  0
    7.1673    2.3006   22.3139 C   0  0  0  0  0  0  0  0  0  0  0  0
    7.8094    1.0000   22.6960 C   0  0  0  0  0  0  0  0  0  0  0  0
    8.5711   -0.2156   23.1342 C   0  0  0  0  0  0  0  0  0  0  0  0
    8.4692   -1.4264   23.1387 O   0  0  0  0  0  0  0  0  0  0  0  0
    9.8560    0.2423   23.7581 N   0  0  0  0  0  0  0  0  0  0  0  0
    9.8885    1.7411   23.7055 C   0  0  0  0  0  0  0  0  0  0  0  0
    8.6236    2.2093   23.0491 C   0  0  0  0  0  0  0  0  0  0  0  0
    7.1111   -0.2953   22.4050 C   0  0  0  0  0  0  0  0  0  0  0  0
    7.7532   -1.5959   22.7871 C   0  0  0  0  0  0  0  0  0  0  0  0
    7.0549   -2.8911   22.4961 C   0  0  0  0  0  0  0  0  0  0  0  0
    7.6970   -4.1918   22.8782 Cl  0  0  0  0  0  0  0  0  0  0  0  0
    5.7144   -2.8857   21.8230 C   0  0  0  0  0  0  0  0  0  0  0  0
    5.0723   -1.5851   21.4409 C   0  0  0  0  0  0  0  0  0  0  0  0
    5.7706   -0.2899   21.7319 C   0  0  0  0  0  0  0  0  0  0  0  0
    5.1285    1.0108   21.3498 C   0  0  0  0  0  0  0  0  0  0  0  0
    3.7880    1.0162   20.6767 O   0  0  0  0  0  0  0  0  0  0  0  0
   10.9214   -0.6430   24.3336 C   0  0  0  0  0  0  0  0  0  0  0  0
   12.3506   -0.4668   23.9137 C   0  0  0  0  0  0  0  0  0  0  0  0
   13.4160   -1.3521   24.4891 N   0  0  0  0  0  0  0  0  0  0  0  0
   13.0522   -2.4136   25.4845 C   0  0  0  0  0  0  0  0  0  0  0  0
   11.6229   -2.5898   25.9045 C   0  0  0  0  0  0  0  0  0  0  0  0
   11.2591   -3.6514   26.8999 C   0  0  0  0  0  0  0  0  0  0  0  0
    9.8299   -3.8275   27.3198 C   0  0  0  0  0  0  0  0  0  0  0  0
    8.7645   -2.9421   26.7443 C   0  0  0  0  0  0  0  0  0  0  0  0
    9.1283   -1.8806   25.7489 C   0  0  0  0  0  0  0  0  0  0  0  0
   10.5576   -1.7045   25.3290 C   0  0  0  0  0  0  0  0  0  0  0  0
    5.1847    3.6067   21.2587 C   0  0  0  0  0  0  0  0  0  0  0  0
    6.6425    7.2160   22.0319 C   0  0  0  0  0  0  0  0  0  0  0  0
    6.2871    5.9590   21.2945 N   0  0  0  0  0  0  0  0  0  0  0  0
    5.5400    4.8637   21.9960 C   0  0  0  0  0  0  0  0  0  0  0  0
    5.1483    5.0253   23.4350 O   0  0  0  0  0  0  0  0  0  0  0  0
    6.5442    5.8529   20.3501 H   0  0  0  0  0  0  0  0  0  0  0  0
    8.2403    3.6363   22.7911 C   0  0  0  0  0  0  0  0  0  0  0  0
    8.8909    4.7404   23.5705 N   0  0  0  0  0  0  0  0  0  0  0  0
    8.5275    5.0050   24.4464 H   0  0  0  0  0  0  0  0  0  0  0  0
   10.0952    5.4415   23.0155 C   0  0  0  0  0  0  0  0  0  0  0  0
   10.1616    6.9400   23.0255 C   0  0  0  0  0  0  0  0  0  0  0  0
   11.3659    7.6411   22.4705 C   0  0  0  0  0  0  0  0  0  0  0  0
   12.5039    6.8437   21.9055 N   0  0  0  0  0  0  0  0  0  0  0  0
   12.4375    5.3452   21.8955 C   0  0  0  0  0  0  0  0  0  0  0  0
   11.2332    4.6441   22.4505 N   0  0  0  0  0  0  0  0  0  0  0  0
 29 30  1  0  0  0
 30 31  1  0  0  0
 31 32  2  0  0  0
 31 28  1  0  0  0
 28  1  1  0  0  0
  1  2  1  0  0  0
  3  2  1  0  0  0
  3  4  1  0  0  0
  4  5  2  0  0  0
  4  6  1  0  0  0
  6 18  1  0  0  0
 18 19  2  0  0  0
 19 20  1  0  0  0
 20 21  2  0  0  0
 21 22  1  0  0  0
 22 23  2  0  0  0
 23 24  1  0  0  0
 24 25  2  0  0  0
 25 26  1  0  0  0
 26 27  2  0  0  0
  6  7  1  0  0  0
  7  8  1  0  0  0
  8 34  1  0  0  0
 34 35  1  0  0  0
 35 37  1  0  0  0
 37 38  2  0  0  0
 38 39  1  0  0  0
 39 40  2  0  0  0
 40 41  1  0  0  0
 41 42  2  0  0  0
  3  9  1  0  0  0
  9 10  2  0  0  0
 10 11  1  0  0  0
 11 12  1  0  0  0
 11 13  2  0  0  0
 13 14  1  0  0  0
 14 15  2  0  0  0
 15 16  1  0  0  0
 16 17  2  0  0  0
 16  1  1  0  0  0
  8  3  1  0  0  0
 42 37  1  0  0  0
 15  9  1  0  0  0
 27 18  1  0  0  0
 27 22  1  0  0  0
 30 33  1  0  0  0
 35 36  1  0  0  0
M  END
> <minimizedAffinity>
-8.21997

> <CNNscore>
0.1422959715

> <CNNaffinity>
6.7269201279

> <CNN_VS>
0.9572136402

> <CNNaffinity_variance>
0.3534125984

$$$$



 42 47  0  0  0  0  0  0  0  0999 V2000
   10.6026    1.4812   22.8124 N   0  0  0  0  0  0  0  0  0  0  0  0
    9.2035    1.1029   23.1992 C   0  0  0  0  0  0  0  0  0  0  0  0
    8.9677   -0.0574   24.1200 C   0  0  0  0  0  0  0  0  0  0  0  0
    8.5786   -1.1870   25.0270 C   0  0  0  0  0  0  0  0  0  0  0  0
    9.0903   -2.0718   25.6840 O   0  0  0  0  0  0  0  0  0  0  0  0
    7.0826   -1.2003   25.1352 N   0  0  0  0  0  0  0  0  0  0  0  0
    6.5471   -0.0789   24.2951 C   0  0  0  0  0  0  0  0  0  0  0  0
    7.7122    0.6274   23.6677 C   0  0  0  0  0  0  0  0  0  0  0  0
   10.1310   -0.8395   24.6542 C   0  0  0  0  0  0  0  0  0  0  0  0
    9.8952   -1.9998   25.5751 C   0  0  0  0  0  0  0  0  0  0  0  0
   11.0585   -2.7817   26.1092 C   0  0  0  0  0  0  0  0  0  0  0  0
   10.8227   -3.9421   27.0301 Cl  0  0  0  0  0  0  0  0  0  0  0  0
   12.4575   -2.4034   25.7225 C   0  0  0  0  0  0  0  0  0  0  0  0
   12.6933   -1.2431   24.8016 C   0  0  0  0  0  0  0  0  0  0  0  0
   11.5301   -0.4611   24.2675 C   0  0  0  0  0  0  0  0  0  0  0  0
   11.7658    0.6993   23.3465 C   0  0  0  0  0  0  0  0  0  0  0  0
   13.1648    1.0776   22.9598 O   0  0  0  0  0  0  0  0  0  0  0  0
    6.2655   -2.1656   25.9419 C   0  0  0  0  0  0  0  0  0  0  0  0
    6.0114   -3.5498   25.4228 C   0  0  0  0  0  0  0  0  0  0  0  0
    5.1943   -4.5150   26.2295 N   0  0  0  0  0  0  0  0  0  0  0  0
    4.6314   -4.0961   27.5552 C   0  0  0  0  0  0  0  0  0  0  0  0
    4.8855   -2.7119   28.0742 C   0  0  0  0  0  0  0  0  0  0  0  0
    4.3225   -2.2929   29.4000 C   0  0  0  0  0  0  0  0  0  0  0  0
    4.5767   -0.9087   29.9190 C   0  0  0  0  0  0  0  0  0  0  0  0
    5.3938    0.0566   29.1123 C   0  0  0  0  0  0  0  0  0  0  0  0
    5.9567   -0.3624   27.7866 C   0  0  0  0  0  0  0  0  0  0  0  0
    5.7026   -1.7466   27.2676 C   0  0  0  0  0  0  0  0  0  0  0  0
   10.8383    2.6416   21.8915 C   0  0  0  0  0  0  0  0  0  0  0  0
   10.5667    6.3060   23.3910 C   0  0  0  0  0  0  0  0  0  0  0  0
   10.1741    4.9713   22.8303 N   0  0  0  0  0  0  0  0  0  0  0  0
   11.2309    3.9763   22.4522 C   0  0  0  0  0  0  0  0  0  0  0  0
   12.6806    4.3161   22.6347 O   0  0  0  0  0  0  0  0  0  0  0  0
    9.2227    4.7483   22.7105 H   0  0  0  0  0  0  0  0  0  0  0  0
    7.6352    1.8108   22.7493 C   0  0  0  0  0  0  0  0  0  0  0  0
    6.3545    2.1228   22.0336 N   0  0  0  0  0  0  0  0  0  0  0  0
    5.7130    2.7577   22.4267 H   0  0  0  0  0  0  0  0  0  0  0  0
    6.0510    1.4673   20.7189 C   0  0  0  0  0  0  0  0  0  0  0  0
    4.7458    1.7363   20.0304 C   0  0  0  0  0  0  0  0  0  0  0  0
    4.4424    1.0809   18.7158 C   0  0  0  0  0  0  0  0  0  0  0  0
    5.4441    0.1564   18.0896 N   0  0  0  0  0  0  0  0  0  0  0  0
    6.7493   -0.1126   18.7782 C   0  0  0  0  0  0  0  0  0  0  0  0
    7.0527    0.5429   20.0929 N   0  0  0  0  0  0  0  0  0  0  0  0
 29 30  1  0  0  0
 30 31  1  0  0  0
 31 32  2  0  0  0
 31 28  1  0  0  0
 28  1  1  0  0  0
  1  2  1  0  0  0
  3  2  1  0  0  0
  3  4  1  0  0  0
  4  5  2  0  0  0
  4  6  1  0  0  0
  6 18  1  0  0  0
 18 19  2  0  0  0
 19 20  1  0  0  0
 20 21  2  0  0  0
 21 22  1  0  0  0
 22 23  2  0  0  0
 23 24  1  0  0  0
 24 25  2  0  0  0
 25 26  1  0  0  0
 26 27  2  0  0  0
  6  7  1  0  0  0
  7  8  1  0  0  0
  8 34  1  0  0  0
 34 35  1  0  0  0
 35 37  1  0  0  0
 37 38  2  0  0  0
 38 39  1  0  0  0
 39 40  2  0  0  0
 40 41  1  0  0  0
 41 42  2  0  0  0
  3  9  1  0  0  0
  9 10  2  0  0  0
 10 11  1  0  0  0
 11 12  1  0  0  0
 11 13  2  0  0  0
 13 14  1  0  0  0
 14 15  2  0  0  0
 15 16  1  0  0  0
 16 17  2  0  0  0
 16  1  1  0  0  0
  8  3  1  0  0  0
 42 37  1  0  0  0
 15  9  1  0  0  0
 27 18  1  0  0  0
 27 22  1  0  0  0
 30 33  1  0  0  0
 35 36  1  0  0  0
M  END
> <minimizedAffinity>
-8.85687

> <CNNscore>
0.1401626766

> <CNNaffinity>
6.8259239197

> <CNN_VS>
0.9567397833

> <CNNaffinity_variance>
0.1118369475

$$$$
