


 37 41  0  0  0  0  0  0  0  0999 V2000
   -8.7927   -2.1916  -23.1039 N   0  0  0  0  0  0  0  0  0  0  0  0
   -9.1770   -2.0012  -22.2178 H   0  0  0  0  0  0  0  0  0  0  0  0
   -6.1279   -5.8401  -27.8302 C   0  0  0  0  0  0  0  0  0  0  0  0
   -5.9961   -4.7410  -28.8424 O   0  0  0  0  0  0  0  0  0  0  0  0
   -6.7136   -5.5501  -26.4801 N   0  0  0  0  0  0  0  0  0  0  0  0
   -6.8454   -6.6492  -25.4679 C   0  0  0  0  0  0  0  0  0  0  0  0
   -7.4310   -6.3591  -24.1177 C   0  0  0  0  0  0  0  0  0  0  0  0
   -7.8849   -4.9700  -23.7798 C   0  0  0  0  0  0  0  0  0  0  0  0
   -7.7531   -3.8709  -24.7920 C   0  0  0  0  0  0  0  0  0  0  0  0
   -7.1675   -4.1609  -26.1421 C   0  0  0  0  0  0  0  0  0  0  0  0
   -7.0357   -3.0618  -27.1544 C   0  0  0  0  0  0  0  0  0  0  0  0
   -7.4895   -1.6726  -26.8164 C   0  0  0  0  0  0  0  0  0  0  0  0
   -8.0752   -1.3826  -25.4663 C   0  0  0  0  0  0  0  0  0  0  0  0
   -8.2070   -2.4816  -24.4541 C   0  0  0  0  0  0  0  0  0  0  0  0
   -4.2407   -7.4827  -28.5303 C   0  0  0  0  0  0  0  0  0  0  0  0
   -5.6741   -7.2293  -28.1681 C   0  0  0  0  0  0  0  0  0  0  0  0
   -8.0841   -1.2628  -22.1629 C   0  0  0  0  0  0  0  0  0  0  0  0
   -8.7924   -0.0541  -21.6271 O   0  0  0  0  0  0  0  0  0  0  0  0
   -6.6673   -1.5429  -21.7577 C   0  0  0  0  0  0  0  0  0  0  0  0
   -6.0882   -0.8761  -20.5453 C   0  0  0  0  0  0  0  0  0  0  0  0
   -6.7393   -1.0579  -19.2063 C   0  0  0  0  0  0  0  0  0  0  0  0
   -6.1602   -0.3911  -17.9940 N   0  0  0  0  0  0  0  0  0  0  0  0
   -4.9298    0.4577  -18.1206 C   0  0  0  0  0  0  0  0  0  0  0  0
   -4.2787    0.6395  -19.4596 C   0  0  0  0  0  0  0  0  0  0  0  0
   -3.0484    1.4882  -19.5862 C   0  0  0  0  0  0  0  0  0  0  0  0
   -2.3973    1.6700  -20.9253 C   0  0  0  0  0  0  0  0  0  0  0  0
   -2.9764    1.0032  -22.1376 C   0  0  0  0  0  0  0  0  0  0  0  0
   -4.2068    0.1544  -22.0110 C   0  0  0  0  0  0  0  0  0  0  0  0
   -4.8579   -0.0274  -20.6720 C   0  0  0  0  0  0  0  0  0  0  0  0
  -10.0867   -2.8302  -22.6948 C   0  0  0  0  0  0  0  0  0  0  0  0
  -11.3734   -2.0712  -22.8301 C   0  0  0  0  0  0  0  0  0  0  0  0
  -12.6675   -2.7096  -22.4202 C   0  0  0  0  0  0  0  0  0  0  0  0
  -13.9542   -1.9506  -22.5555 C   0  0  0  0  0  0  0  0  0  0  0  0
  -13.9468   -0.5531  -23.1007 C   0  0  0  0  0  0  0  0  0  0  0  0
  -12.6528    0.0852  -23.5105 C   0  0  0  0  0  0  0  0  0  0  0  0
  -12.6455    1.4827  -24.0557 Cl  0  0  0  0  0  0  0  0  0  0  0  0
  -11.3661   -0.6738  -23.3753 C   0  0  0  0  0  0  0  0  0  0  0  0
 15 16  2  0  0  0
 16  3  1  0  0  0
  3  4  2  0  0  0
  3  5  1  0  0  0
  5  6  1  0  0  0
  6  7  1  0  0  0
  7  8  1  0  0  0
  8  9  1  0  0  0
  9 10  2  0  0  0
 10 11  1  0  0  0
 11 12  2  0  0  0
 12 13  1  0  0  0
 13 14  2  0  0  0
 14  1  1  0  0  0
  1 30  1  0  0  0
 30 31  1  0  0  0
 31 32  2  0  0  0
 32 33  1  0  0  0
 33 34  2  0  0  0
 34 35  1  0  0  0
 35 36  1  0  0  0
 35 37  2  0  0  0
  1 17  1  0  0  0
 17 18  2  0  0  0
 17 19  1  0  0  0
 19 20  1  0  0  0
 20 21  2  0  0  0
 21 22  1  0  0  0
 22 23  2  0  0  0
 23 24  1  0  0  0
 24 25  2  0  0  0
 25 26  1  0  0  0
 26 27  2  0  0  0
 27 28  1  0  0  0
 28 29  2  0  0  0
 10  5  1  0  0  0
 37 31  1  0  0  0
 29 20  1  0  0  0
 14  9  1  0  0  0
 29 24  1  0  0  0
  1  2  1  0  0  0
M  CHG 1   1   1
M  END
> <minimizedAffinity>
-8.27440

> <CNNscore>
0.6976168156

> <CNNaffinity>
6.8360757828

> <CNN_VS>
4.7689614296

> <CNNaffinity_variance>
0.0421079881

$$$$



 37 41  0  0  0  0  0  0  0  0999 V2000
   -8.3762    0.2584  -23.9495 N   0  0  0  0  0  0  0  0  0  0  0  0
   -8.7251    0.9253  -23.3149 H   0  0  0  0  0  0  0  0  0  0  0  0
   -8.2562   -5.3665  -27.2804 C   0  0  0  0  0  0  0  0  0  0  0  0
   -6.9870   -5.0944  -28.0321 O   0  0  0  0  0  0  0  0  0  0  0  0
   -8.7879   -4.3504  -26.3136 N   0  0  0  0  0  0  0  0  0  0  0  0
  -10.0570   -4.6226  -25.5619 C   0  0  0  0  0  0  0  0  0  0  0  0
  -10.5887   -3.6065  -24.5951 C   0  0  0  0  0  0  0  0  0  0  0  0
   -9.8512   -2.3182  -24.3799 C   0  0  0  0  0  0  0  0  0  0  0  0
   -8.5820   -2.0460  -25.1315 C   0  0  0  0  0  0  0  0  0  0  0  0
   -8.0503   -3.0621  -26.0984 C   0  0  0  0  0  0  0  0  0  0  0  0
   -6.7811   -2.7899  -26.8500 C   0  0  0  0  0  0  0  0  0  0  0  0
   -6.0436   -1.5016  -26.6348 C   0  0  0  0  0  0  0  0  0  0  0  0
   -6.5753   -0.4855  -25.6680 C   0  0  0  0  0  0  0  0  0  0  0  0
   -7.8445   -0.7577  -24.9163 C   0  0  0  0  0  0  0  0  0  0  0  0
   -9.2800   -7.5584  -26.3331 C   0  0  0  0  0  0  0  0  0  0  0  0
   -8.9937   -6.6548  -27.4956 C   0  0  0  0  0  0  0  0  0  0  0  0
   -8.1648    0.0740  -22.4759 C   0  0  0  0  0  0  0  0  0  0  0  0
   -9.0658    0.7662  -21.4966 O   0  0  0  0  0  0  0  0  0  0  0  0
   -7.0525   -0.8026  -21.9816 C   0  0  0  0  0  0  0  0  0  0  0  0
   -6.3397   -0.4626  -20.7064 C   0  0  0  0  0  0  0  0  0  0  0  0
   -6.8720   -0.9580  -19.3945 C   0  0  0  0  0  0  0  0  0  0  0  0
   -6.1592   -0.6180  -18.1193 N   0  0  0  0  0  0  0  0  0  0  0  0
   -4.9140    0.2176  -18.1560 C   0  0  0  0  0  0  0  0  0  0  0  0
   -4.3816    0.7131  -19.4679 C   0  0  0  0  0  0  0  0  0  0  0  0
   -3.1365    1.5486  -19.5046 C   0  0  0  0  0  0  0  0  0  0  0  0
   -2.6041    2.0441  -20.8166 C   0  0  0  0  0  0  0  0  0  0  0  0
   -3.3169    1.7040  -22.0918 C   0  0  0  0  0  0  0  0  0  0  0  0
   -4.5622    0.8684  -22.0551 C   0  0  0  0  0  0  0  0  0  0  0  0
   -5.0945    0.3730  -20.7432 C   0  0  0  0  0  0  0  0  0  0  0  0
   -9.1191    1.4589  -24.4561 C   0  0  0  0  0  0  0  0  0  0  0  0
  -10.5519    1.6735  -24.0672 C   0  0  0  0  0  0  0  0  0  0  0  0
  -11.0721    3.0649  -23.8586 C   0  0  0  0  0  0  0  0  0  0  0  0
  -12.5048    3.2794  -23.4697 C   0  0  0  0  0  0  0  0  0  0  0  0
  -13.4173    2.1026  -23.2894 C   0  0  0  0  0  0  0  0  0  0  0  0
  -12.8971    0.7113  -23.4981 C   0  0  0  0  0  0  0  0  0  0  0  0
  -13.8096   -0.4656  -23.3178 Cl  0  0  0  0  0  0  0  0  0  0  0  0
  -11.4643    0.4967  -23.8870 C   0  0  0  0  0  0  0  0  0  0  0  0
 15 16  2  0  0  0
 16  3  1  0  0  0
  3  4  2  0  0  0
  3  5  1  0  0  0
  5  6  1  0  0  0
  6  7  1  0  0  0
  7  8  1  0  0  0
  8  9  1  0  0  0
  9 10  2  0  0  0
 10 11  1  0  0  0
 11 12  2  0  0  0
 12 13  1  0  0  0
 13 14  2  0  0  0
 14  1  1  0  0  0
  1 30  1  0  0  0
 30 31  1  0  0  0
 31 32  2  0  0  0
 32 33  1  0  0  0
 33 34  2  0  0  0
 34 35  1  0  0  0
 35 36  1  0  0  0
 35 37  2  0  0  0
  1 17  1  0  0  0
 17 18  2  0  0  0
 17 19  1  0  0  0
 19 20  1  0  0  0
 20 21  2  0  0  0
 21 22  1  0  0  0
 22 23  2  0  0  0
 23 24  1  0  0  0
 24 25  2  0  0  0
 25 26  1  0  0  0
 26 27  2  0  0  0
 27 28  1  0  0  0
 28 29  2  0  0  0
 10  5  1  0  0  0
 37 31  1  0  0  0
 29 20  1  0  0  0
 14  9  1  0  0  0
 29 24  1  0  0  0
  1  2  1  0  0  0
M  CHG 1   1   1
M  END
> <minimizedAffinity>
-8.46299

> <CNNscore>
0.5930787325

> <CNNaffinity>
6.6018610001

> <CNN_VS>
3.9154233932

> <CNNaffinity_variance>
0.2491062880

$$$$



 37 41  0  0  0  0  0  0  0  0999 V2000
   -7.7574   -1.7768  -22.4361 N   0  0  0  0  0  0  0  0  0  0  0  0
   -6.8658   -2.1512  -22.2513 H   0  0  0  0  0  0  0  0  0  0  0  0
  -12.1235    2.8332  -23.9965 C   0  0  0  0  0  0  0  0  0  0  0  0
  -13.3366    1.9542  -23.9202 O   0  0  0  0  0  0  0  0  0  0  0  0
  -10.7651    2.2628  -23.7150 N   0  0  0  0  0  0  0  0  0  0  0  0
   -9.5521    3.1418  -23.7914 C   0  0  0  0  0  0  0  0  0  0  0  0
   -8.1936    2.5714  -23.5098 C   0  0  0  0  0  0  0  0  0  0  0  0
   -8.0482    1.1220  -23.1519 C   0  0  0  0  0  0  0  0  0  0  0  0
   -9.2613    0.2430  -23.0756 C   0  0  0  0  0  0  0  0  0  0  0  0
  -10.6197    0.8134  -23.3571 C   0  0  0  0  0  0  0  0  0  0  0  0
  -11.8328   -0.0656  -23.2807 C   0  0  0  0  0  0  0  0  0  0  0  0
  -11.6874   -1.5150  -22.9228 C   0  0  0  0  0  0  0  0  0  0  0  0
  -10.3289   -2.0854  -22.6413 C   0  0  0  0  0  0  0  0  0  0  0  0
   -9.1159   -1.2064  -22.7177 C   0  0  0  0  0  0  0  0  0  0  0  0
  -13.2596    5.1398  -23.6238 C   0  0  0  0  0  0  0  0  0  0  0  0
  -12.2689    4.2826  -24.3544 C   0  0  0  0  0  0  0  0  0  0  0  0
   -7.0908   -1.5114  -21.1188 C   0  0  0  0  0  0  0  0  0  0  0  0
   -7.9145   -1.1287  -19.9251 O   0  0  0  0  0  0  0  0  0  0  0  0
   -5.6005   -1.6285  -20.9954 C   0  0  0  0  0  0  0  0  0  0  0  0
   -4.7698   -0.4042  -20.7488 C   0  0  0  0  0  0  0  0  0  0  0  0
   -4.6542    0.1571  -19.3625 C   0  0  0  0  0  0  0  0  0  0  0  0
   -3.8235    1.3814  -19.1159 N   0  0  0  0  0  0  0  0  0  0  0  0
   -3.1083    2.0446  -20.2556 C   0  0  0  0  0  0  0  0  0  0  0  0
   -3.2239    1.4834  -21.6419 C   0  0  0  0  0  0  0  0  0  0  0  0
   -2.5088    2.1465  -22.7815 C   0  0  0  0  0  0  0  0  0  0  0  0
   -2.6244    1.5852  -24.1677 C   0  0  0  0  0  0  0  0  0  0  0  0
   -3.4551    0.3609  -24.4143 C   0  0  0  0  0  0  0  0  0  0  0  0
   -4.1703   -0.3023  -23.2747 C   0  0  0  0  0  0  0  0  0  0  0  0
   -4.0547    0.2589  -21.8884 C   0  0  0  0  0  0  0  0  0  0  0  0
   -7.0656   -2.6127  -23.4718 C   0  0  0  0  0  0  0  0  0  0  0  0
   -7.1373   -4.1092  -23.3982 C   0  0  0  0  0  0  0  0  0  0  0  0
   -8.0226   -4.8651  -24.3442 C   0  0  0  0  0  0  0  0  0  0  0  0
   -8.0943   -6.3616  -24.2705 C   0  0  0  0  0  0  0  0  0  0  0  0
   -7.2805   -7.1021  -23.2509 C   0  0  0  0  0  0  0  0  0  0  0  0
   -6.3952   -6.3462  -22.3050 C   0  0  0  0  0  0  0  0  0  0  0  0
   -5.5815   -7.0868  -21.2854 Cl  0  0  0  0  0  0  0  0  0  0  0  0
   -6.3236   -4.8497  -22.3786 C   0  0  0  0  0  0  0  0  0  0  0  0
 15 16  2  0  0  0
 16  3  1  0  0  0
  3  4  2  0  0  0
  3  5  1  0  0  0
  5  6  1  0  0  0
  6  7  1  0  0  0
  7  8  1  0  0  0
  8  9  1  0  0  0
  9 10  2  0  0  0
 10 11  1  0  0  0
 11 12  2  0  0  0
 12 13  1  0  0  0
 13 14  2  0  0  0
 14  1  1  0  0  0
  1 30  1  0  0  0
 30 31  1  0  0  0
 31 32  2  0  0  0
 32 33  1  0  0  0
 33 34  2  0  0  0
 34 35  1  0  0  0
 35 36  1  0  0  0
 35 37  2  0  0  0
  1 17  1  0  0  0
 17 18  2  0  0  0
 17 19  1  0  0  0
 19 20  1  0  0  0
 20 21  2  0  0  0
 21 22  1  0  0  0
 22 23  2  0  0  0
 23 24  1  0  0  0
 24 25  2  0  0  0
 25 26  1  0  0  0
 26 27  2  0  0  0
 27 28  1  0  0  0
 28 29  2  0  0  0
 10  5  1  0  0  0
 37 31  1  0  0  0
 29 20  1  0  0  0
 14  9  1  0  0  0
 29 24  1  0  0  0
  1  2  1  0  0  0
M  CHG 1   1   1
M  END
> <minimizedAffinity>
-8.12219

> <CNNscore>
0.5544668436

> <CNNaffinity>
6.6140222549

> <CNN_VS>
3.6672561169

> <CNNaffinity_variance>
0.2576747537

$$$$



 37 41  0  0  0  0  0  0  0  0999 V2000
   -8.6535   -1.7945  -23.6043 N   0  0  0  0  0  0  0  0  0  0  0  0
   -7.7876   -2.2603  -23.6527 H   0  0  0  0  0  0  0  0  0  0  0  0
  -12.7609    3.2830  -23.9195 C   0  0  0  0  0  0  0  0  0  0  0  0
  -14.0056    2.5189  -23.5776 O   0  0  0  0  0  0  0  0  0  0  0  0
  -11.4416    2.5731  -23.9933 N   0  0  0  0  0  0  0  0  0  0  0  0
  -10.1969    3.3372  -24.3352 C   0  0  0  0  0  0  0  0  0  0  0  0
   -8.8775    2.6273  -24.4089 C   0  0  0  0  0  0  0  0  0  0  0  0
   -8.8029    1.1534  -24.1407 C   0  0  0  0  0  0  0  0  0  0  0  0
  -10.0475    0.3894  -23.7988 C   0  0  0  0  0  0  0  0  0  0  0  0
  -11.3669    1.0992  -23.7250 C   0  0  0  0  0  0  0  0  0  0  0  0
  -12.6116    0.3351  -23.3831 C   0  0  0  0  0  0  0  0  0  0  0  0
  -12.5369   -1.1388  -23.1149 C   0  0  0  0  0  0  0  0  0  0  0  0
  -11.2175   -1.8487  -23.1886 C   0  0  0  0  0  0  0  0  0  0  0  0
   -9.9729   -1.0846  -23.5306 C   0  0  0  0  0  0  0  0  0  0  0  0
  -13.7625    5.6195  -23.3835 C   0  0  0  0  0  0  0  0  0  0  0  0
  -12.8356    4.7569  -24.1877 C   0  0  0  0  0  0  0  0  0  0  0  0
   -7.7591   -1.8420  -22.4010 C   0  0  0  0  0  0  0  0  0  0  0  0
   -6.5771   -2.7652  -22.3810 O   0  0  0  0  0  0  0  0  0  0  0  0
   -8.0469   -0.9663  -21.2176 C   0  0  0  0  0  0  0  0  0  0  0  0
   -6.9582   -0.6519  -20.2348 C   0  0  0  0  0  0  0  0  0  0  0  0
   -6.9333   -1.3345  -18.8994 C   0  0  0  0  0  0  0  0  0  0  0  0
   -5.8446   -1.0202  -17.9166 N   0  0  0  0  0  0  0  0  0  0  0  0
   -4.7808   -0.0232  -18.2692 C   0  0  0  0  0  0  0  0  0  0  0  0
   -4.8056    0.6594  -19.6047 C   0  0  0  0  0  0  0  0  0  0  0  0
   -3.7419    1.6563  -19.9573 C   0  0  0  0  0  0  0  0  0  0  0  0
   -3.7667    2.3389  -21.2928 C   0  0  0  0  0  0  0  0  0  0  0  0
   -4.8554    2.0246  -22.2756 C   0  0  0  0  0  0  0  0  0  0  0  0
   -5.9193    1.0276  -21.9229 C   0  0  0  0  0  0  0  0  0  0  0  0
   -5.8944    0.3450  -20.5875 C   0  0  0  0  0  0  0  0  0  0  0  0
   -8.2285   -2.4567  -24.8813 C   0  0  0  0  0  0  0  0  0  0  0  0
   -8.4512   -3.9276  -25.0735 C   0  0  0  0  0  0  0  0  0  0  0  0
   -7.6020   -4.9178  -24.3329 C   0  0  0  0  0  0  0  0  0  0  0  0
   -7.8247   -6.3887  -24.5251 C   0  0  0  0  0  0  0  0  0  0  0  0
   -8.8965   -6.8694  -25.4580 C   0  0  0  0  0  0  0  0  0  0  0  0
   -9.7456   -5.8792  -26.1986 C   0  0  0  0  0  0  0  0  0  0  0  0
  -10.8175   -6.3598  -27.1314 Cl  0  0  0  0  0  0  0  0  0  0  0  0
   -9.5230   -4.4083  -26.0063 C   0  0  0  0  0  0  0  0  0  0  0  0
 15 16  2  0  0  0
 16  3  1  0  0  0
  3  4  2  0  0  0
  3  5  1  0  0  0
  5  6  1  0  0  0
  6  7  1  0  0  0
  7  8  1  0  0  0
  8  9  1  0  0  0
  9 10  2  0  0  0
 10 11  1  0  0  0
 11 12  2  0  0  0
 12 13  1  0  0  0
 13 14  2  0  0  0
 14  1  1  0  0  0
  1 30  1  0  0  0
 30 31  1  0  0  0
 31 32  2  0  0  0
 32 33  1  0  0  0
 33 34  2  0  0  0
 34 35  1  0  0  0
 35 36  1  0  0  0
 35 37  2  0  0  0
  1 17  1  0  0  0
 17 18  2  0  0  0
 17 19  1  0  0  0
 19 20  1  0  0  0
 20 21  2  0  0  0
 21 22  1  0  0  0
 22 23  2  0  0  0
 23 24  1  0  0  0
 24 25  2  0  0  0
 25 26  1  0  0  0
 26 27  2  0  0  0
 27 28  1  0  0  0
 28 29  2  0  0  0
 10  5  1  0  0  0
 37 31  1  0  0  0
 29 20  1  0  0  0
 14  9  1  0  0  0
 29 24  1  0  0  0
  1  2  1  0  0  0
M  CHG 1   1   1
M  END
> <minimizedAffinity>
-8.96198

> <CNNscore>
0.4275178015

> <CNNaffinity>
6.6103944778

> <CNN_VS>
2.8260612488

> <CNNaffinity_variance>
0.3197789788

$$$$



 37 41  0  0  0  0  0  0  0  0999 V2000
   -8.8646   -1.7689  -23.5851 N   0  0  0  0  0  0  0  0  0  0  0  0
   -8.0294   -2.2899  -23.5987 H   0  0  0  0  0  0  0  0  0  0  0  0
  -12.6012    3.5869  -23.9075 C   0  0  0  0  0  0  0  0  0  0  0  0
  -13.9142    2.8937  -23.6944 O   0  0  0  0  0  0  0  0  0  0  0  0
  -11.3287    2.7930  -23.9283 N   0  0  0  0  0  0  0  0  0  0  0  0
  -10.0157    3.4862  -24.1415 C   0  0  0  0  0  0  0  0  0  0  0  0
   -8.7432    2.6923  -24.1623 C   0  0  0  0  0  0  0  0  0  0  0  0
   -8.7836    1.2053  -23.9699 C   0  0  0  0  0  0  0  0  0  0  0  0
  -10.0966    0.5121  -23.7567 C   0  0  0  0  0  0  0  0  0  0  0  0
  -11.3692    1.3060  -23.7359 C   0  0  0  0  0  0  0  0  0  0  0  0
  -12.6822    0.6127  -23.5227 C   0  0  0  0  0  0  0  0  0  0  0  0
  -12.7227   -0.8743  -23.3303 C   0  0  0  0  0  0  0  0  0  0  0  0
  -11.4502   -1.6682  -23.3511 C   0  0  0  0  0  0  0  0  0  0  0  0
  -10.1372   -0.9750  -23.5643 C   0  0  0  0  0  0  0  0  0  0  0  0
  -13.7206    5.9186  -23.6627 C   0  0  0  0  0  0  0  0  0  0  0  0
  -12.5608    5.0739  -24.0999 C   0  0  0  0  0  0  0  0  0  0  0  0
   -8.0655   -1.9380  -22.3269 C   0  0  0  0  0  0  0  0  0  0  0  0
   -8.7225   -1.7554  -20.9909 O   0  0  0  0  0  0  0  0  0  0  0  0
   -6.6094   -2.2898  -22.4049 C   0  0  0  0  0  0  0  0  0  0  0  0
   -5.5732   -1.2058  -22.3729 C   0  0  0  0  0  0  0  0  0  0  0  0
   -4.9172   -0.7575  -23.6451 C   0  0  0  0  0  0  0  0  0  0  0  0
   -3.8810    0.3266  -23.6131 N   0  0  0  0  0  0  0  0  0  0  0  0
   -3.5007    0.9623  -22.3088 C   0  0  0  0  0  0  0  0  0  0  0  0
   -4.1567    0.5140  -21.0365 C   0  0  0  0  0  0  0  0  0  0  0  0
   -3.7765    1.1498  -19.7322 C   0  0  0  0  0  0  0  0  0  0  0  0
   -4.4325    0.7015  -18.4599 C   0  0  0  0  0  0  0  0  0  0  0  0
   -5.4687   -0.3826  -18.4919 C   0  0  0  0  0  0  0  0  0  0  0  0
   -5.8490   -1.0184  -19.7963 C   0  0  0  0  0  0  0  0  0  0  0  0
   -5.1930   -0.5700  -21.0686 C   0  0  0  0  0  0  0  0  0  0  0  0
   -8.3912   -2.3936  -24.8640 C   0  0  0  0  0  0  0  0  0  0  0  0
   -8.5434   -3.8703  -25.0787 C   0  0  0  0  0  0  0  0  0  0  0  0
   -7.6355   -4.8292  -24.3672 C   0  0  0  0  0  0  0  0  0  0  0  0
   -7.7878   -6.3059  -24.5819 C   0  0  0  0  0  0  0  0  0  0  0  0
   -8.8480   -6.8237  -25.5081 C   0  0  0  0  0  0  0  0  0  0  0  0
   -9.7559   -5.8648  -26.2196 C   0  0  0  0  0  0  0  0  0  0  0  0
  -10.8161   -6.3827  -27.1459 Cl  0  0  0  0  0  0  0  0  0  0  0  0
   -9.6036   -4.3881  -26.0049 C   0  0  0  0  0  0  0  0  0  0  0  0
 15 16  2  0  0  0
 16  3  1  0  0  0
  3  4  2  0  0  0
  3  5  1  0  0  0
  5  6  1  0  0  0
  6  7  1  0  0  0
  7  8  1  0  0  0
  8  9  1  0  0  0
  9 10  2  0  0  0
 10 11  1  0  0  0
 11 12  2  0  0  0
 12 13  1  0  0  0
 13 14  2  0  0  0
 14  1  1  0  0  0
  1 30  1  0  0  0
 30 31  1  0  0  0
 31 32  2  0  0  0
 32 33  1  0  0  0
 33 34  2  0  0  0
 34 35  1  0  0  0
 35 36  1  0  0  0
 35 37  2  0  0  0
  1 17  1  0  0  0
 17 18  2  0  0  0
 17 19  1  0  0  0
 19 20  1  0  0  0
 20 21  2  0  0  0
 21 22  1  0  0  0
 22 23  2  0  0  0
 23 24  1  0  0  0
 24 25  2  0  0  0
 25 26  1  0  0  0
 26 27  2  0  0  0
 27 28  1  0  0  0
 28 29  2  0  0  0
 10  5  1  0  0  0
 37 31  1  0  0  0
 29 20  1  0  0  0
 14  9  1  0  0  0
 29 24  1  0  0  0
  1  2  1  0  0  0
M  CHG 1   1   1
M  END
> <minimizedAffinity>
-8.44350

> <CNNscore>
0.3347880244

> <CNNaffinity>
6.5576858521

> <CNN_VS>
2.1954348087

> <CNNaffinity_variance>
0.0695185810

$$$$



 37 41  0  0  0  0  0  0  0  0999 V2000
   -6.3034   -1.3531  -22.1893 N   0  0  0  0  0  0  0  0  0  0  0  0
   -7.1124   -1.8170  -21.8740 H   0  0  0  0  0  0  0  0  0  0  0  0
   -0.9618    2.3873  -21.7133 C   0  0  0  0  0  0  0  0  0  0  0  0
   -0.5509    2.2844  -23.1522 O   0  0  0  0  0  0  0  0  0  0  0  0
   -2.1945    1.6804  -21.2329 N   0  0  0  0  0  0  0  0  0  0  0  0
   -2.6054    1.7834  -19.7940 C   0  0  0  0  0  0  0  0  0  0  0  0
   -3.8381    1.0764  -19.3136 C   0  0  0  0  0  0  0  0  0  0  0  0
   -4.6598    0.2666  -20.2722 C   0  0  0  0  0  0  0  0  0  0  0  0
   -4.2489    0.1637  -21.7111 C   0  0  0  0  0  0  0  0  0  0  0  0
   -3.0162    0.8706  -22.1915 C   0  0  0  0  0  0  0  0  0  0  0  0
   -2.6053    0.7676  -23.6305 C   0  0  0  0  0  0  0  0  0  0  0  0
   -3.4271   -0.0422  -24.5890 C   0  0  0  0  0  0  0  0  0  0  0  0
   -4.6598   -0.7491  -24.1086 C   0  0  0  0  0  0  0  0  0  0  0  0
   -5.0707   -0.6462  -22.6697 C   0  0  0  0  0  0  0  0  0  0  0  0
   -0.3411    4.6807  -20.6621 C   0  0  0  0  0  0  0  0  0  0  0  0
   -0.1400    3.1972  -20.7548 C   0  0  0  0  0  0  0  0  0  0  0  0
   -7.6240   -0.6416  -22.1891 C   0  0  0  0  0  0  0  0  0  0  0  0
   -8.0786    0.0955  -20.9644 O   0  0  0  0  0  0  0  0  0  0  0  0
   -8.4899   -0.6672  -23.4137 C   0  0  0  0  0  0  0  0  0  0  0  0
   -9.9725   -0.8512  -23.2802 C   0  0  0  0  0  0  0  0  0  0  0  0
  -10.5347   -2.2052  -22.9631 C   0  0  0  0  0  0  0  0  0  0  0  0
  -12.0174   -2.3892  -22.8296 N   0  0  0  0  0  0  0  0  0  0  0  0
  -12.9379   -1.2191  -23.0131 C   0  0  0  0  0  0  0  0  0  0  0  0
  -12.3757    0.1349  -23.3301 C   0  0  0  0  0  0  0  0  0  0  0  0
  -13.2961    1.3050  -23.5136 C   0  0  0  0  0  0  0  0  0  0  0  0
  -12.7339    2.6590  -23.8306 C   0  0  0  0  0  0  0  0  0  0  0  0
  -11.2512    2.8430  -23.9641 C   0  0  0  0  0  0  0  0  0  0  0  0
  -10.3307    1.6729  -23.7807 C   0  0  0  0  0  0  0  0  0  0  0  0
  -10.8929    0.3189  -23.4636 C   0  0  0  0  0  0  0  0  0  0  0  0
   -6.2155   -2.7714  -21.7091 C   0  0  0  0  0  0  0  0  0  0  0  0
   -6.4463   -3.9030  -22.6664 C   0  0  0  0  0  0  0  0  0  0  0  0
   -6.8303   -3.6164  -24.0879 C   0  0  0  0  0  0  0  0  0  0  0  0
   -7.0610   -4.7479  -25.0451 C   0  0  0  0  0  0  0  0  0  0  0  0
   -6.9077   -6.1661  -24.5809 C   0  0  0  0  0  0  0  0  0  0  0  0
   -6.5237   -6.4526  -23.1595 C   0  0  0  0  0  0  0  0  0  0  0  0
   -6.3703   -7.8708  -22.6953 Cl  0  0  0  0  0  0  0  0  0  0  0  0
   -6.2929   -5.3211  -22.2023 C   0  0  0  0  0  0  0  0  0  0  0  0
 15 16  2  0  0  0
 16  3  1  0  0  0
  3  4  2  0  0  0
  3  5  1  0  0  0
  5  6  1  0  0  0
  6  7  1  0  0  0
  7  8  1  0  0  0
  8  9  1  0  0  0
  9 10  2  0  0  0
 10 11  1  0  0  0
 11 12  2  0  0  0
 12 13  1  0  0  0
 13 14  2  0  0  0
 14  1  1  0  0  0
  1 30  1  0  0  0
 30 31  1  0  0  0
 31 32  2  0  0  0
 32 33  1  0  0  0
 33 34  2  0  0  0
 34 35  1  0  0  0
 35 36  1  0  0  0
 35 37  2  0  0  0
  1 17  1  0  0  0
 17 18  2  0  0  0
 17 19  1  0  0  0
 19 20  1  0  0  0
 20 21  2  0  0  0
 21 22  1  0  0  0
 22 23  2  0  0  0
 23 24  1  0  0  0
 24 25  2  0  0  0
 25 26  1  0  0  0
 26 27  2  0  0  0
 27 28  1  0  0  0
 28 29  2  0  0  0
 10  5  1  0  0  0
 37 31  1  0  0  0
 29 20  1  0  0  0
 14  9  1  0  0  0
 29 24  1  0  0  0
  1  2  1  0  0  0
M  CHG 1   1   1
M  END
> <minimizedAffinity>
-7.95560

> <CNNscore>
0.3064254224

> <CNNaffinity>
6.2488322258

> <CNN_VS>
1.9148010015

> <CNNaffinity_variance>
0.1668152064

$$$$



 37 41  0  0  0  0  0  0  0  0999 V2000
   -7.7877   -2.2849  -23.6364 N   0  0  0  0  0  0  0  0  0  0  0  0
   -7.9412   -1.4169  -23.1981 H   0  0  0  0  0  0  0  0  0  0  0  0
   -4.6803   -6.6455  -27.3886 C   0  0  0  0  0  0  0  0  0  0  0  0
   -5.6493   -7.7717  -27.1821 O   0  0  0  0  0  0  0  0  0  0  0  0
   -4.9142   -5.3229  -26.7208 N   0  0  0  0  0  0  0  0  0  0  0  0
   -3.9452   -4.1967  -26.9273 C   0  0  0  0  0  0  0  0  0  0  0  0
   -4.1791   -2.8741  -26.2595 C   0  0  0  0  0  0  0  0  0  0  0  0
   -5.3820   -2.6777  -25.3851 C   0  0  0  0  0  0  0  0  0  0  0  0
   -6.3509   -3.8039  -25.1786 C   0  0  0  0  0  0  0  0  0  0  0  0
   -6.1171   -5.1265  -25.8465 C   0  0  0  0  0  0  0  0  0  0  0  0
   -7.0861   -6.2528  -25.6399 C   0  0  0  0  0  0  0  0  0  0  0  0
   -8.2890   -6.0564  -24.7656 C   0  0  0  0  0  0  0  0  0  0  0  0
   -8.5228   -4.7337  -24.0977 C   0  0  0  0  0  0  0  0  0  0  0  0
   -7.5539   -3.6075  -24.3042 C   0  0  0  0  0  0  0  0  0  0  0  0
   -2.3233   -7.6673  -27.7765 C   0  0  0  0  0  0  0  0  0  0  0  0
   -3.4775   -6.8419  -28.2630 C   0  0  0  0  0  0  0  0  0  0  0  0
   -7.5459   -2.1353  -22.1635 C   0  0  0  0  0  0  0  0  0  0  0  0
   -8.6868   -1.8110  -21.2453 O   0  0  0  0  0  0  0  0  0  0  0  0
   -6.1631   -2.3098  -21.6090 C   0  0  0  0  0  0  0  0  0  0  0  0
   -5.6975   -1.4509  -20.4709 C   0  0  0  0  0  0  0  0  0  0  0  0
   -6.1793   -1.7265  -19.0774 C   0  0  0  0  0  0  0  0  0  0  0  0
   -5.7137   -0.8675  -17.9393 N   0  0  0  0  0  0  0  0  0  0  0  0
   -4.7662    0.2670  -18.1946 C   0  0  0  0  0  0  0  0  0  0  0  0
   -4.2844    0.5426  -19.5882 C   0  0  0  0  0  0  0  0  0  0  0  0
   -3.3370    1.6771  -19.8436 C   0  0  0  0  0  0  0  0  0  0  0  0
   -2.8551    1.9526  -21.2371 C   0  0  0  0  0  0  0  0  0  0  0  0
   -3.3208    1.0937  -22.3752 C   0  0  0  0  0  0  0  0  0  0  0  0
   -4.2683   -0.0409  -22.1199 C   0  0  0  0  0  0  0  0  0  0  0  0
   -4.7501   -0.3164  -20.7263 C   0  0  0  0  0  0  0  0  0  0  0  0
   -8.2634   -1.1120  -24.4413 C   0  0  0  0  0  0  0  0  0  0  0  0
   -9.5351   -0.4108  -24.0656 C   0  0  0  0  0  0  0  0  0  0  0  0
   -9.5888    1.0882  -24.0508 C   0  0  0  0  0  0  0  0  0  0  0  0
  -10.8605    1.7894  -23.6751 C   0  0  0  0  0  0  0  0  0  0  0  0
  -12.0785    0.9916  -23.3143 C   0  0  0  0  0  0  0  0  0  0  0  0
  -12.0247   -0.5073  -23.3291 C   0  0  0  0  0  0  0  0  0  0  0  0
  -13.2427   -1.3051  -22.9683 Cl  0  0  0  0  0  0  0  0  0  0  0  0
  -10.7530   -1.2085  -23.7048 C   0  0  0  0  0  0  0  0  0  0  0  0
 15 16  2  0  0  0
 16  3  1  0  0  0
  3  4  2  0  0  0
  3  5  1  0  0  0
  5  6  1  0  0  0
  6  7  1  0  0  0
  7  8  1  0  0  0
  8  9  1  0  0  0
  9 10  2  0  0  0
 10 11  1  0  0  0
 11 12  2  0  0  0
 12 13  1  0  0  0
 13 14  2  0  0  0
 14  1  1  0  0  0
  1 30  1  0  0  0
 30 31  1  0  0  0
 31 32  2  0  0  0
 32 33  1  0  0  0
 33 34  2  0  0  0
 34 35  1  0  0  0
 35 36  1  0  0  0
 35 37  2  0  0  0
  1 17  1  0  0  0
 17 18  2  0  0  0
 17 19  1  0  0  0
 19 20  1  0  0  0
 20 21  2  0  0  0
 21 22  1  0  0  0
 22 23  2  0  0  0
 23 24  1  0  0  0
 24 25  2  0  0  0
 25 26  1  0  0  0
 26 27  2  0  0  0
 27 28  1  0  0  0
 28 29  2  0  0  0
 10  5  1  0  0  0
 37 31  1  0  0  0
 29 20  1  0  0  0
 14  9  1  0  0  0
 29 24  1  0  0  0
  1  2  1  0  0  0
M  CHG 1   1   1
M  END
> <minimizedAffinity>
-7.89335

> <CNNscore>
0.2570111752

> <CNNaffinity>
6.1633014679

> <CNN_VS>
1.5840373039

> <CNNaffinity_variance>
0.2100849152

$$$$



 37 41  0  0  0  0  0  0  0  0999 V2000
   -6.3783   -2.0254  -21.9944 N   0  0  0  0  0  0  0  0  0  0  0  0
   -7.0838   -2.6246  -21.6590 H   0  0  0  0  0  0  0  0  0  0  0  0
   -1.7203    2.5490  -21.6362 C   0  0  0  0  0  0  0  0  0  0  0  0
   -1.3620    2.5441  -23.0928 O   0  0  0  0  0  0  0  0  0  0  0  0
   -2.7952    1.6360  -21.1252 N   0  0  0  0  0  0  0  0  0  0  0  0
   -3.1535    1.6409  -19.6687 C   0  0  0  0  0  0  0  0  0  0  0  0
   -4.2284    0.7279  -19.1577 C   0  0  0  0  0  0  0  0  0  0  0  0
   -4.9450   -0.1898  -20.1032 C   0  0  0  0  0  0  0  0  0  0  0  0
   -4.5867   -0.1947  -21.5597 C   0  0  0  0  0  0  0  0  0  0  0  0
   -3.5118    0.7183  -22.0707 C   0  0  0  0  0  0  0  0  0  0  0  0
   -3.1536    0.7134  -23.5274 C   0  0  0  0  0  0  0  0  0  0  0  0
   -3.8702   -0.2044  -24.4729 C   0  0  0  0  0  0  0  0  0  0  0  0
   -4.9451   -1.1173  -23.9619 C   0  0  0  0  0  0  0  0  0  0  0  0
   -5.3034   -1.1125  -22.5054 C   0  0  0  0  0  0  0  0  0  0  0  0
    0.2833    3.0322  -20.0545 C   0  0  0  0  0  0  0  0  0  0  0  0
   -1.0037    3.4668  -20.6907 C   0  0  0  0  0  0  0  0  0  0  0  0
   -7.7778   -1.5137  -21.8225 C   0  0  0  0  0  0  0  0  0  0  0  0
   -8.3771   -1.4148  -20.4510 O   0  0  0  0  0  0  0  0  0  0  0  0
   -8.5780   -1.1009  -23.0222 C   0  0  0  0  0  0  0  0  0  0  0  0
  -10.0742   -1.2053  -22.9979 C   0  0  0  0  0  0  0  0  0  0  0  0
  -10.7295   -2.5265  -22.7240 C   0  0  0  0  0  0  0  0  0  0  0  0
  -12.2256   -2.6309  -22.6998 N   0  0  0  0  0  0  0  0  0  0  0  0
  -13.0665   -1.4140  -22.9494 C   0  0  0  0  0  0  0  0  0  0  0  0
  -12.4112   -0.0928  -23.2233 C   0  0  0  0  0  0  0  0  0  0  0  0
  -13.2520    1.1240  -23.4730 C   0  0  0  0  0  0  0  0  0  0  0  0
  -12.5967    2.4451  -23.7469 C   0  0  0  0  0  0  0  0  0  0  0  0
  -11.1006    2.5495  -23.7712 C   0  0  0  0  0  0  0  0  0  0  0  0
  -10.2597    1.3327  -23.5215 C   0  0  0  0  0  0  0  0  0  0  0  0
  -10.9150    0.0115  -23.2476 C   0  0  0  0  0  0  0  0  0  0  0  0
   -6.0537   -3.4501  -21.6552 C   0  0  0  0  0  0  0  0  0  0  0  0
   -6.5957   -4.5644  -22.5004 C   0  0  0  0  0  0  0  0  0  0  0  0
   -6.3696   -5.9910  -22.0955 C   0  0  0  0  0  0  0  0  0  0  0  0
   -6.9116   -7.1054  -22.9407 C   0  0  0  0  0  0  0  0  0  0  0  0
   -7.6798   -6.7932  -24.1907 C   0  0  0  0  0  0  0  0  0  0  0  0
   -7.9060   -5.3667  -24.5955 C   0  0  0  0  0  0  0  0  0  0  0  0
   -8.6742   -5.0546  -25.8455 Cl  0  0  0  0  0  0  0  0  0  0  0  0
   -7.3639   -4.2523  -23.7503 C   0  0  0  0  0  0  0  0  0  0  0  0
 15 16  2  0  0  0
 16  3  1  0  0  0
  3  4  2  0  0  0
  3  5  1  0  0  0
  5  6  1  0  0  0
  6  7  1  0  0  0
  7  8  1  0  0  0
  8  9  1  0  0  0
  9 10  2  0  0  0
 10 11  1  0  0  0
 11 12  2  0  0  0
 12 13  1  0  0  0
 13 14  2  0  0  0
 14  1  1  0  0  0
  1 30  1  0  0  0
 30 31  1  0  0  0
 31 32  2  0  0  0
 32 33  1  0  0  0
 33 34  2  0  0  0
 34 35  1  0  0  0
 35 36  1  0  0  0
 35 37  2  0  0  0
  1 17  1  0  0  0
 17 18  2  0  0  0
 17 19  1  0  0  0
 19 20  1  0  0  0
 20 21  2  0  0  0
 21 22  1  0  0  0
 22 23  2  0  0  0
 23 24  1  0  0  0
 24 25  2  0  0  0
 25 26  1  0  0  0
 26 27  2  0  0  0
 27 28  1  0  0  0
 28 29  2  0  0  0
 10  5  1  0  0  0
 37 31  1  0  0  0
 29 20  1  0  0  0
 14  9  1  0  0  0
 29 24  1  0  0  0
  1  2  1  0  0  0
M  CHG 1   1   1
M  END
> <minimizedAffinity>
-8.05867

> <CNNscore>
0.2371407300

> <CNNaffinity>
6.1641058922

> <CNN_VS>
1.4617605209

> <CNNaffinity_variance>
0.4684957862

$$$$



 37 41  0  0  0  0  0  0  0  0999 V2000
   -8.7205   -1.4971  -23.8172 N   0  0  0  0  0  0  0  0  0  0  0  0
   -7.8643   -1.9775  -23.8910 H   0  0  0  0  0  0  0  0  0  0  0  0
  -12.7646    3.6332  -24.0903 C   0  0  0  0  0  0  0  0  0  0  0  0
  -14.0036    2.8982  -23.6725 O   0  0  0  0  0  0  0  0  0  0  0  0
  -11.4602    2.9012  -24.2028 N   0  0  0  0  0  0  0  0  0  0  0  0
  -10.2213    3.6363  -24.6207 C   0  0  0  0  0  0  0  0  0  0  0  0
   -8.9169    2.9043  -24.7332 C   0  0  0  0  0  0  0  0  0  0  0  0
   -8.8514    1.4372  -24.4279 C   0  0  0  0  0  0  0  0  0  0  0  0
  -10.0903    0.7021  -24.0100 C   0  0  0  0  0  0  0  0  0  0  0  0
  -11.3947    1.4341  -23.8975 C   0  0  0  0  0  0  0  0  0  0  0  0
  -12.6337    0.6990  -23.4796 C   0  0  0  0  0  0  0  0  0  0  0  0
  -12.5682   -0.7681  -23.1743 C   0  0  0  0  0  0  0  0  0  0  0  0
  -11.2638   -1.5002  -23.2868 C   0  0  0  0  0  0  0  0  0  0  0  0
  -10.0249   -0.7651  -23.7046 C   0  0  0  0  0  0  0  0  0  0  0  0
  -13.7698    5.9844  -23.6306 C   0  0  0  0  0  0  0  0  0  0  0  0
  -12.8301    5.1003  -24.3957 C   0  0  0  0  0  0  0  0  0  0  0  0
   -7.6341   -1.2527  -22.8120 C   0  0  0  0  0  0  0  0  0  0  0  0
   -6.2422   -1.7445  -23.0775 O   0  0  0  0  0  0  0  0  0  0  0  0
   -7.9398   -0.5163  -21.5414 C   0  0  0  0  0  0  0  0  0  0  0  0
   -6.9184   -0.4572  -20.4446 C   0  0  0  0  0  0  0  0  0  0  0  0
   -7.0523   -1.3492  -19.2461 C   0  0  0  0  0  0  0  0  0  0  0  0
   -6.0309   -1.2900  -18.1492 N   0  0  0  0  0  0  0  0  0  0  0  0
   -4.8755   -0.3388  -18.2508 C   0  0  0  0  0  0  0  0  0  0  0  0
   -4.7416    0.5533  -19.4492 C   0  0  0  0  0  0  0  0  0  0  0  0
   -3.5863    1.5045  -19.5508 C   0  0  0  0  0  0  0  0  0  0  0  0
   -3.4524    2.3966  -20.7493 C   0  0  0  0  0  0  0  0  0  0  0  0
   -4.4738    2.3374  -21.8462 C   0  0  0  0  0  0  0  0  0  0  0  0
   -5.6292    1.3861  -21.7446 C   0  0  0  0  0  0  0  0  0  0  0  0
   -5.7631    0.4941  -20.5462 C   0  0  0  0  0  0  0  0  0  0  0  0
   -8.5023   -2.4735  -24.9347 C   0  0  0  0  0  0  0  0  0  0  0  0
   -7.6494   -3.6875  -24.7142 C   0  0  0  0  0  0  0  0  0  0  0  0
   -6.4473   -3.9266  -25.5791 C   0  0  0  0  0  0  0  0  0  0  0  0
   -5.5943   -5.1406  -25.3586 C   0  0  0  0  0  0  0  0  0  0  0  0
   -5.9434   -6.1155  -24.2733 C   0  0  0  0  0  0  0  0  0  0  0  0
   -7.1455   -5.8763  -23.4085 C   0  0  0  0  0  0  0  0  0  0  0  0
   -7.4946   -6.8512  -22.3232 Cl  0  0  0  0  0  0  0  0  0  0  0  0
   -7.9984   -4.6623  -23.6290 C   0  0  0  0  0  0  0  0  0  0  0  0
 15 16  2  0  0  0
 16  3  1  0  0  0
  3  4  2  0  0  0
  3  5  1  0  0  0
  5  6  1  0  0  0
  6  7  1  0  0  0
  7  8  1  0  0  0
  8  9  1  0  0  0
  9 10  2  0  0  0
 10 11  1  0  0  0
 11 12  2  0  0  0
 12 13  1  0  0  0
 13 14  2  0  0  0
 14  1  1  0  0  0
  1 30  1  0  0  0
 30 31  1  0  0  0
 31 32  2  0  0  0
 32 33  1  0  0  0
 33 34  2  0  0  0
 34 35  1  0  0  0
 35 36  1  0  0  0
 35 37  2  0  0  0
  1 17  1  0  0  0
 17 18  2  0  0  0
 17 19  1  0  0  0
 19 20  1  0  0  0
 20 21  2  0  0  0
 21 22  1  0  0  0
 22 23  2  0  0  0
 23 24  1  0  0  0
 24 25  2  0  0  0
 25 26  1  0  0  0
 26 27  2  0  0  0
 27 28  1  0  0  0
 28 29  2  0  0  0
 10  5  1  0  0  0
 37 31  1  0  0  0
 29 20  1  0  0  0
 14  9  1  0  0  0
 29 24  1  0  0  0
  1  2  1  0  0  0
M  CHG 1   1   1
M  END
> <minimizedAffinity>
-8.78093

> <CNNscore>
0.2214638144

> <CNNaffinity>
6.3567318916

> <CNN_VS>
1.4077861309

> <CNNaffinity_variance>
0.2531106472

$$$$
