


 25 28  0  0  0  0  0  0  0  0999 V2000
   -7.7215   -6.4574  -25.4326 C   0  0  0  0  0  0  0  0  0  0  0  0
   -8.1079   -5.2435  -24.6408 C   0  0  0  0  0  0  0  0  0  0  0  0
   -9.3995   -4.4896  -24.7566 C   0  0  0  0  0  0  0  0  0  0  0  0
   -9.3604   -3.3505  -23.7815 C   0  0  0  0  0  0  0  0  0  0  0  0
   -8.0447   -3.4004  -23.0629 N   0  0  0  0  0  0  0  0  0  0  0  0
   -7.5839   -2.4476  -21.9999 C   0  0  0  0  0  0  0  0  0  0  0  0
   -8.4722   -1.3183  -21.5688 O   0  0  0  0  0  0  0  0  0  0  0  0
   -7.2706   -4.5703  -23.5940 C   0  0  0  0  0  0  0  0  0  0  0  0
  -10.4465   -2.3391  -23.5632 C   0  0  0  0  0  0  0  0  0  0  0  0
  -10.2305   -0.9090  -23.9607 C   0  0  0  0  0  0  0  0  0  0  0  0
  -11.3165    0.1024  -23.7424 C   0  0  0  0  0  0  0  0  0  0  0  0
  -12.6186   -0.3163  -23.1266 C   0  0  0  0  0  0  0  0  0  0  0  0
  -12.8346   -1.7465  -22.7291 C   0  0  0  0  0  0  0  0  0  0  0  0
  -11.7486   -2.7579  -22.9474 C   0  0  0  0  0  0  0  0  0  0  0  0
   -6.2350   -2.6241  -21.3681 C   0  0  0  0  0  0  0  0  0  0  0  0
   -5.7662   -1.6598  -20.3191 C   0  0  0  0  0  0  0  0  0  0  0  0
   -6.2046   -1.8294  -18.8948 C   0  0  0  0  0  0  0  0  0  0  0  0
   -5.7358   -0.8651  -17.8458 N   0  0  0  0  0  0  0  0  0  0  0  0
   -4.8285    0.2688  -18.2213 C   0  0  0  0  0  0  0  0  0  0  0  0
   -4.3900    0.4385  -19.6457 C   0  0  0  0  0  0  0  0  0  0  0  0
   -3.4827    1.5724  -20.0212 C   0  0  0  0  0  0  0  0  0  0  0  0
   -3.0442    1.7420  -21.4456 C   0  0  0  0  0  0  0  0  0  0  0  0
   -3.5131    0.7777  -22.4945 C   0  0  0  0  0  0  0  0  0  0  0  0
   -4.4204   -0.3562  -22.1191 C   0  0  0  0  0  0  0  0  0  0  0  0
   -4.8588   -0.5258  -20.6947 C   0  0  0  0  0  0  0  0  0  0  0  0
  2  1  1  0  0  0
  2  3  1  0  0  0
  3  4  1  0  0  0
  4  9  1  0  0  0
  9 10  2  0  0  0
 10 11  1  0  0  0
 11 12  2  0  0  0
 12 13  1  0  0  0
 13 14  2  0  0  0
  4  5  1  0  0  0
  5  6  1  0  0  0
  6  7  2  0  0  0
  6 15  1  0  0  0
 15 16  1  0  0  0
 16 17  2  0  0  0
 17 18  1  0  0  0
 18 19  2  0  0  0
 19 20  1  0  0  0
 20 21  2  0  0  0
 21 22  1  0  0  0
 22 23  2  0  0  0
 23 24  1  0  0  0
 24 25  2  0  0  0
  5  8  1  0  0  0
  8  2  1  0  0  0
 14  9  1  0  0  0
 25 16  1  0  0  0
 25 20  1  0  0  0
M  END
> <minimizedAffinity>
-7.89252

> <CNNscore>
0.7954531312

> <CNNaffinity>
5.7420649529

> <CNN_VS>
4.5675435066

> <CNNaffinity_variance>
0.3690521419

$$$$



 25 28  0  0  0  0  0  0  0  0999 V2000
   -9.0853   -5.5940  -25.4736 C   0  0  0  0  0  0  0  0  0  0  0  0
   -9.2005   -4.2949  -24.7327 C   0  0  0  0  0  0  0  0  0  0  0  0
  -10.3136   -3.2985  -24.8678 C   0  0  0  0  0  0  0  0  0  0  0  0
  -10.0238   -2.1519  -23.9451 C   0  0  0  0  0  0  0  0  0  0  0  0
   -8.7316   -2.4395  -23.2398 N   0  0  0  0  0  0  0  0  0  0  0  0
   -8.0652   -1.5576  -22.2259 C   0  0  0  0  0  0  0  0  0  0  0  0
   -8.6960   -0.2537  -21.8359 O   0  0  0  0  0  0  0  0  0  0  0  0
   -8.2228   -3.7640  -23.7266 C   0  0  0  0  0  0  0  0  0  0  0  0
  -10.8765   -0.9317  -23.7603 C   0  0  0  0  0  0  0  0  0  0  0  0
  -10.2777    0.4337  -23.9242 C   0  0  0  0  0  0  0  0  0  0  0  0
  -11.1304    1.6538  -23.7394 C   0  0  0  0  0  0  0  0  0  0  0  0
  -12.5821    1.5085  -23.3906 C   0  0  0  0  0  0  0  0  0  0  0  0
  -13.1809    0.1430  -23.2266 C   0  0  0  0  0  0  0  0  0  0  0  0
  -12.3282   -1.0771  -23.4114 C   0  0  0  0  0  0  0  0  0  0  0  0
   -6.7680   -1.9795  -21.6019 C   0  0  0  0  0  0  0  0  0  0  0  0
   -6.1825   -1.1802  -20.4758 C   0  0  0  0  0  0  0  0  0  0  0  0
   -6.7744   -1.2762  -19.1009 C   0  0  0  0  0  0  0  0  0  0  0  0
   -6.1888   -0.4768  -17.9747 N   0  0  0  0  0  0  0  0  0  0  0  0
   -5.0113    0.4185  -18.2235 C   0  0  0  0  0  0  0  0  0  0  0  0
   -4.4194    0.5146  -19.5985 C   0  0  0  0  0  0  0  0  0  0  0  0
   -3.2419    1.4099  -19.8473 C   0  0  0  0  0  0  0  0  0  0  0  0
   -2.6501    1.5059  -21.2222 C   0  0  0  0  0  0  0  0  0  0  0  0
   -3.2356    0.7065  -22.3483 C   0  0  0  0  0  0  0  0  0  0  0  0
   -4.4131   -0.1888  -22.0995 C   0  0  0  0  0  0  0  0  0  0  0  0
   -5.0050   -0.2848  -20.7246 C   0  0  0  0  0  0  0  0  0  0  0  0
  2  1  1  0  0  0
  2  3  1  0  0  0
  3  4  1  0  0  0
  4  9  1  0  0  0
  9 10  2  0  0  0
 10 11  1  0  0  0
 11 12  2  0  0  0
 12 13  1  0  0  0
 13 14  2  0  0  0
  4  5  1  0  0  0
  5  6  1  0  0  0
  6  7  2  0  0  0
  6 15  1  0  0  0
 15 16  1  0  0  0
 16 17  2  0  0  0
 17 18  1  0  0  0
 18 19  2  0  0  0
 19 20  1  0  0  0
 20 21  2  0  0  0
 21 22  1  0  0  0
 22 23  2  0  0  0
 23 24  1  0  0  0
 24 25  2  0  0  0
  5  8  1  0  0  0
  8  2  1  0  0  0
 14  9  1  0  0  0
 25 16  1  0  0  0
 25 20  1  0  0  0
M  END
> <minimizedAffinity>
-7.93566

> <CNNscore>
0.6865712404

> <CNNaffinity>
5.6329545975

> <CNN_VS>
3.8674247265

> <CNNaffinity_variance>
0.4486090243

$$$$



 25 28  0  0  0  0  0  0  0  0999 V2000
   -9.1162   -5.6157  -25.4237 C   0  0  0  0  0  0  0  0  0  0  0  0
   -9.2264   -4.3107  -24.6924 C   0  0  0  0  0  0  0  0  0  0  0  0
  -10.3200   -3.2973  -24.8570 C   0  0  0  0  0  0  0  0  0  0  0  0
  -10.0317   -2.1503  -23.9343 C   0  0  0  0  0  0  0  0  0  0  0  0
   -8.7600   -2.4547  -23.1995 N   0  0  0  0  0  0  0  0  0  0  0  0
   -8.1016   -1.5779  -22.1759 C   0  0  0  0  0  0  0  0  0  0  0  0
   -8.7195   -0.2619  -21.8067 O   0  0  0  0  0  0  0  0  0  0  0  0
   -8.2623   -3.7900  -23.6680 C   0  0  0  0  0  0  0  0  0  0  0  0
  -10.8683   -0.9156  -23.7746 C   0  0  0  0  0  0  0  0  0  0  0  0
  -12.2976   -1.0298  -23.3341 C   0  0  0  0  0  0  0  0  0  0  0  0
  -13.1342    0.2049  -23.1744 C   0  0  0  0  0  0  0  0  0  0  0  0
  -12.5416    1.5539  -23.4552 C   0  0  0  0  0  0  0  0  0  0  0  0
  -11.1123    1.6683  -23.8957 C   0  0  0  0  0  0  0  0  0  0  0  0
  -10.2756    0.4335  -24.0554 C   0  0  0  0  0  0  0  0  0  0  0  0
   -6.8253   -2.0171  -21.5216 C   0  0  0  0  0  0  0  0  0  0  0  0
   -6.2276   -1.1965  -20.4174 C   0  0  0  0  0  0  0  0  0  0  0  0
   -6.8180   -1.2495  -19.0395 C   0  0  0  0  0  0  0  0  0  0  0  0
   -6.2203   -0.4289  -17.9353 N   0  0  0  0  0  0  0  0  0  0  0  0
   -5.0321    0.4447  -18.2090 C   0  0  0  0  0  0  0  0  0  0  0  0
   -4.4415    0.4978  -19.5869 C   0  0  0  0  0  0  0  0  0  0  0  0
   -3.2533    1.3714  -19.8605 C   0  0  0  0  0  0  0  0  0  0  0  0
   -2.6629    1.4244  -21.2383 C   0  0  0  0  0  0  0  0  0  0  0  0
   -3.2606    0.6037  -22.3425 C   0  0  0  0  0  0  0  0  0  0  0  0
   -4.4488   -0.2699  -22.0689 C   0  0  0  0  0  0  0  0  0  0  0  0
   -5.0393   -0.3229  -20.6911 C   0  0  0  0  0  0  0  0  0  0  0  0
  2  1  1  0  0  0
  2  3  1  0  0  0
  3  4  1  0  0  0
  4  9  1  0  0  0
  9 10  2  0  0  0
 10 11  1  0  0  0
 11 12  2  0  0  0
 12 13  1  0  0  0
 13 14  2  0  0  0
  4  5  1  0  0  0
  5  6  1  0  0  0
  6  7  2  0  0  0
  6 15  1  0  0  0
 15 16  1  0  0  0
 16 17  2  0  0  0
 17 18  1  0  0  0
 18 19  2  0  0  0
 19 20  1  0  0  0
 20 21  2  0  0  0
 21 22  1  0  0  0
 22 23  2  0  0  0
 23 24  1  0  0  0
 24 25  2  0  0  0
  5  8  1  0  0  0
  8  2  1  0  0  0
 14  9  1  0  0  0
 25 16  1  0  0  0
 25 20  1  0  0  0
M  END
> <minimizedAffinity>
-7.82343

> <CNNscore>
0.6784923077

> <CNNaffinity>
5.6268844604

> <CNN_VS>
3.8177978992

> <CNNaffinity_variance>
0.4510453343

$$$$



 25 28  0  0  0  0  0  0  0  0999 V2000
   -7.6405    2.9326  -25.5073 C   0  0  0  0  0  0  0  0  0  0  0  0
   -8.2107    1.7856  -24.7268 C   0  0  0  0  0  0  0  0  0  0  0  0
   -9.6557    1.3865  -24.6744 C   0  0  0  0  0  0  0  0  0  0  0  0
   -9.7740    0.1905  -23.7768 C   0  0  0  0  0  0  0  0  0  0  0  0
   -8.4022   -0.1496  -23.2745 N   0  0  0  0  0  0  0  0  0  0  0  0
   -8.0571   -1.2775  -22.3478 C   0  0  0  0  0  0  0  0  0  0  0  0
   -9.1360   -2.1871  -21.8391 O   0  0  0  0  0  0  0  0  0  0  0  0
   -7.4360    0.8362  -23.8616 C   0  0  0  0  0  0  0  0  0  0  0  0
  -11.0417   -0.5375  -23.4407 C   0  0  0  0  0  0  0  0  0  0  0  0
  -12.3167    0.2278  -23.2444 C   0  0  0  0  0  0  0  0  0  0  0  0
  -13.5843   -0.5003  -22.9082 C   0  0  0  0  0  0  0  0  0  0  0  0
  -13.5770   -1.9937  -22.7683 C   0  0  0  0  0  0  0  0  0  0  0  0
  -12.3020   -2.7591  -22.9646 C   0  0  0  0  0  0  0  0  0  0  0  0
  -11.0343   -2.0311  -23.3008 C   0  0  0  0  0  0  0  0  0  0  0  0
   -6.6332   -1.4959  -21.9298 C   0  0  0  0  0  0  0  0  0  0  0  0
   -6.1128   -0.8560  -20.6769 C   0  0  0  0  0  0  0  0  0  0  0  0
   -6.8278   -1.0654  -19.3751 C   0  0  0  0  0  0  0  0  0  0  0  0
   -6.3073   -0.4255  -18.1222 N   0  0  0  0  0  0  0  0  0  0  0  0
   -5.0719    0.4237  -18.1712 C   0  0  0  0  0  0  0  0  0  0  0  0
   -4.3569    0.6332  -19.4731 C   0  0  0  0  0  0  0  0  0  0  0  0
   -3.1215    1.4824  -19.5221 C   0  0  0  0  0  0  0  0  0  0  0  0
   -2.4065    1.6918  -20.8239 C   0  0  0  0  0  0  0  0  0  0  0  0
   -2.9269    1.0519  -22.0768 C   0  0  0  0  0  0  0  0  0  0  0  0
   -4.1623    0.2027  -22.0278 C   0  0  0  0  0  0  0  0  0  0  0  0
   -4.8773   -0.0067  -20.7260 C   0  0  0  0  0  0  0  0  0  0  0  0
  2  1  1  0  0  0
  2  3  1  0  0  0
  3  4  1  0  0  0
  4  9  1  0  0  0
  9 10  2  0  0  0
 10 11  1  0  0  0
 11 12  2  0  0  0
 12 13  1  0  0  0
 13 14  2  0  0  0
  4  5  1  0  0  0
  5  6  1  0  0  0
  6  7  2  0  0  0
  6 15  1  0  0  0
 15 16  1  0  0  0
 16 17  2  0  0  0
 17 18  1  0  0  0
 18 19  2  0  0  0
 19 20  1  0  0  0
 20 21  2  0  0  0
 21 22  1  0  0  0
 22 23  2  0  0  0
 23 24  1  0  0  0
 24 25  2  0  0  0
  5  8  1  0  0  0
  8  2  1  0  0  0
 14  9  1  0  0  0
 25 16  1  0  0  0
 25 20  1  0  0  0
M  END
> <minimizedAffinity>
-6.99143

> <CNNscore>
0.6330705285

> <CNNaffinity>
5.5439825058

> <CNN_VS>
3.5097320080

> <CNNaffinity_variance>
0.0340622477

$$$$



 25 28  0  0  0  0  0  0  0  0999 V2000
  -10.6030   -6.2118  -27.4549 C   0  0  0  0  0  0  0  0  0  0  0  0
   -9.6768   -5.7805  -26.3566 C   0  0  0  0  0  0  0  0  0  0  0  0
   -8.6550   -6.6420  -25.6758 C   0  0  0  0  0  0  0  0  0  0  0  0
   -7.9565   -5.8058  -24.6448 C   0  0  0  0  0  0  0  0  0  0  0  0
   -8.5467   -4.4275  -24.6884 N   0  0  0  0  0  0  0  0  0  0  0  0
   -8.1444   -3.2684  -23.8255 C   0  0  0  0  0  0  0  0  0  0  0  0
   -7.0582   -3.4349  -22.8044 O   0  0  0  0  0  0  0  0  0  0  0  0
   -9.6099   -4.4118  -25.7463 C   0  0  0  0  0  0  0  0  0  0  0  0
   -6.8603   -6.2670  -23.7306 C   0  0  0  0  0  0  0  0  0  0  0  0
   -5.4387   -6.2755  -24.2089 C   0  0  0  0  0  0  0  0  0  0  0  0
   -4.3425   -6.7367  -23.2948 C   0  0  0  0  0  0  0  0  0  0  0  0
   -4.6680   -7.1895  -21.9023 C   0  0  0  0  0  0  0  0  0  0  0  0
   -6.0896   -7.1810  -21.4239 C   0  0  0  0  0  0  0  0  0  0  0  0
   -7.1858   -6.7198  -22.3381 C   0  0  0  0  0  0  0  0  0  0  0  0
   -8.8281   -1.9427  -23.9837 C   0  0  0  0  0  0  0  0  0  0  0  0
  -10.2564   -1.7797  -23.5553 C   0  0  0  0  0  0  0  0  0  0  0  0
  -11.0321   -2.9657  -23.0639 C   0  0  0  0  0  0  0  0  0  0  0  0
  -12.4603   -2.8026  -22.6355 N   0  0  0  0  0  0  0  0  0  0  0  0
  -13.1129   -1.4535  -22.6987 C   0  0  0  0  0  0  0  0  0  0  0  0
  -12.3372   -0.2674  -23.1902 C   0  0  0  0  0  0  0  0  0  0  0  0
  -12.9898    1.0817  -23.2533 C   0  0  0  0  0  0  0  0  0  0  0  0
  -12.2141    2.2677  -23.7448 C   0  0  0  0  0  0  0  0  0  0  0  0
  -10.7859    2.1047  -24.1731 C   0  0  0  0  0  0  0  0  0  0  0  0
  -10.1333    0.7556  -24.1100 C   0  0  0  0  0  0  0  0  0  0  0  0
  -10.9090   -0.4305  -23.6185 C   0  0  0  0  0  0  0  0  0  0  0  0
  2  1  1  0  0  0
  2  3  1  0  0  0
  3  4  1  0  0  0
  4  9  1  0  0  0
  9 10  2  0  0  0
 10 11  1  0  0  0
 11 12  2  0  0  0
 12 13  1  0  0  0
 13 14  2  0  0  0
  4  5  1  0  0  0
  5  6  1  0  0  0
  6  7  2  0  0  0
  6 15  1  0  0  0
 15 16  1  0  0  0
 16 17  2  0  0  0
 17 18  1  0  0  0
 18 19  2  0  0  0
 19 20  1  0  0  0
 20 21  2  0  0  0
 21 22  1  0  0  0
 22 23  2  0  0  0
 23 24  1  0  0  0
 24 25  2  0  0  0
  5  8  1  0  0  0
  8  2  1  0  0  0
 14  9  1  0  0  0
 25 16  1  0  0  0
 25 20  1  0  0  0
M  END
> <minimizedAffinity>
-6.85626

> <CNNscore>
0.6191915274

> <CNNaffinity>
5.6387085915

> <CNN_VS>
3.4914405346

> <CNNaffinity_variance>
0.0822148174

$$$$



 25 28  0  0  0  0  0  0  0  0999 V2000
   -8.5894   -6.1158  -26.5165 C   0  0  0  0  0  0  0  0  0  0  0  0
   -8.9567   -5.0589  -25.5175 C   0  0  0  0  0  0  0  0  0  0  0  0
  -10.2891   -4.3797  -25.4021 C   0  0  0  0  0  0  0  0  0  0  0  0
  -10.2119   -3.3967  -24.2717 C   0  0  0  0  0  0  0  0  0  0  0  0
   -8.8318   -3.4683  -23.6885 N   0  0  0  0  0  0  0  0  0  0  0  0
   -8.3177   -2.6554  -22.5374 C   0  0  0  0  0  0  0  0  0  0  0  0
   -9.2147   -1.6608  -21.8620 O   0  0  0  0  0  0  0  0  0  0  0  0
   -8.0561   -4.4956  -24.4585 C   0  0  0  0  0  0  0  0  0  0  0  0
  -11.3203   -2.4995  -23.8062 C   0  0  0  0  0  0  0  0  0  0  0  0
  -11.3972   -1.0849  -24.2989 C   0  0  0  0  0  0  0  0  0  0  0  0
  -12.5056   -0.1878  -23.8335 C   0  0  0  0  0  0  0  0  0  0  0  0
  -13.5371   -0.7053  -22.8753 C   0  0  0  0  0  0  0  0  0  0  0  0
  -13.4602   -2.1200  -22.3825 C   0  0  0  0  0  0  0  0  0  0  0  0
  -12.3519   -3.0171  -22.8480 C   0  0  0  0  0  0  0  0  0  0  0  0
   -6.9068   -2.8372  -22.0619 C   0  0  0  0  0  0  0  0  0  0  0  0
   -5.9406   -1.6915  -22.1250 C   0  0  0  0  0  0  0  0  0  0  0  0
   -5.3882   -1.2483  -23.4473 C   0  0  0  0  0  0  0  0  0  0  0  0
   -4.4220   -0.1027  -23.5104 N   0  0  0  0  0  0  0  0  0  0  0  0
   -4.0082    0.5997  -22.2513 C   0  0  0  0  0  0  0  0  0  0  0  0
   -4.5607    0.1566  -20.9290 C   0  0  0  0  0  0  0  0  0  0  0  0
   -4.1469    0.8590  -19.6699 C   0  0  0  0  0  0  0  0  0  0  0  0
   -4.6994    0.4158  -18.3477 C   0  0  0  0  0  0  0  0  0  0  0  0
   -5.6656   -0.7298  -18.2845 C   0  0  0  0  0  0  0  0  0  0  0  0
   -6.0793   -1.4323  -19.5436 C   0  0  0  0  0  0  0  0  0  0  0  0
   -5.5269   -0.9891  -20.8659 C   0  0  0  0  0  0  0  0  0  0  0  0
  2  1  1  0  0  0
  2  3  1  0  0  0
  3  4  1  0  0  0
  4  9  1  0  0  0
  9 10  2  0  0  0
 10 11  1  0  0  0
 11 12  2  0  0  0
 12 13  1  0  0  0
 13 14  2  0  0  0
  4  5  1  0  0  0
  5  6  1  0  0  0
  6  7  2  0  0  0
  6 15  1  0  0  0
 15 16  1  0  0  0
 16 17  2  0  0  0
 17 18  1  0  0  0
 18 19  2  0  0  0
 19 20  1  0  0  0
 20 21  2  0  0  0
 21 22  1  0  0  0
 22 23  2  0  0  0
 23 24  1  0  0  0
 24 25  2  0  0  0
  5  8  1  0  0  0
  8  2  1  0  0  0
 14  9  1  0  0  0
 25 16  1  0  0  0
 25 20  1  0  0  0
M  END
> <minimizedAffinity>
-6.83968

> <CNNscore>
0.5192517638

> <CNNaffinity>
5.3843679428

> <CNN_VS>
2.7958426476

> <CNNaffinity_variance>
0.0264277719

$$$$



 25 28  0  0  0  0  0  0  0  0999 V2000
   -7.0144    1.4173  -27.6674 C   0  0  0  0  0  0  0  0  0  0  0  0
   -7.7677    1.4212  -26.3703 C   0  0  0  0  0  0  0  0  0  0  0  0
   -9.0095    2.2088  -26.0742 C   0  0  0  0  0  0  0  0  0  0  0  0
   -9.4207    1.9125  -24.6624 C   0  0  0  0  0  0  0  0  0  0  0  0
   -8.4331    0.9417  -24.0860 N   0  0  0  0  0  0  0  0  0  0  0  0
   -8.4620    0.3742  -22.6978 C   0  0  0  0  0  0  0  0  0  0  0  0
   -9.5519    0.7726  -21.7472 O   0  0  0  0  0  0  0  0  0  0  0  0
   -7.4115    0.6381  -25.1415 C   0  0  0  0  0  0  0  0  0  0  0  0
  -10.6106    2.4862  -23.9518 C   0  0  0  0  0  0  0  0  0  0  0  0
  -10.6587    3.9507  -23.6316 C   0  0  0  0  0  0  0  0  0  0  0  0
  -11.8487    4.5244  -22.9210 C   0  0  0  0  0  0  0  0  0  0  0  0
  -12.9906    3.6335  -22.5307 C   0  0  0  0  0  0  0  0  0  0  0  0
  -12.9425    2.1689  -22.8509 C   0  0  0  0  0  0  0  0  0  0  0  0
  -11.7526    1.5952  -23.5615 C   0  0  0  0  0  0  0  0  0  0  0  0
   -7.4011   -0.5916  -22.2601 C   0  0  0  0  0  0  0  0  0  0  0  0
   -6.7087   -0.3992  -20.9434 C   0  0  0  0  0  0  0  0  0  0  0  0
   -7.2644   -1.0353  -19.7038 C   0  0  0  0  0  0  0  0  0  0  0  0
   -6.5721   -0.8429  -18.3871 N   0  0  0  0  0  0  0  0  0  0  0  0
   -5.3241   -0.0144  -18.3100 C   0  0  0  0  0  0  0  0  0  0  0  0
   -4.7683    0.6218  -19.5496 C   0  0  0  0  0  0  0  0  0  0  0  0
   -3.5203    1.4503  -19.4725 C   0  0  0  0  0  0  0  0  0  0  0  0
   -2.9646    2.0864  -20.7120 C   0  0  0  0  0  0  0  0  0  0  0  0
   -3.6570    1.8940  -22.0287 C   0  0  0  0  0  0  0  0  0  0  0  0
   -4.9050    1.0655  -22.1058 C   0  0  0  0  0  0  0  0  0  0  0  0
   -5.4607    0.4294  -20.8663 C   0  0  0  0  0  0  0  0  0  0  0  0
  2  1  1  0  0  0
  2  3  1  0  0  0
  3  4  1  0  0  0
  4  9  1  0  0  0
  9 10  2  0  0  0
 10 11  1  0  0  0
 11 12  2  0  0  0
 12 13  1  0  0  0
 13 14  2  0  0  0
  4  5  1  0  0  0
  5  6  1  0  0  0
  6  7  2  0  0  0
  6 15  1  0  0  0
 15 16  1  0  0  0
 16 17  2  0  0  0
 17 18  1  0  0  0
 18 19  2  0  0  0
 19 20  1  0  0  0
 20 21  2  0  0  0
 21 22  1  0  0  0
 22 23  2  0  0  0
 23 24  1  0  0  0
 24 25  2  0  0  0
  5  8  1  0  0  0
  8  2  1  0  0  0
 14  9  1  0  0  0
 25 16  1  0  0  0
 25 20  1  0  0  0
M  END
> <minimizedAffinity>
-6.99190

> <CNNscore>
0.4742321074

> <CNNaffinity>
5.1550474167

> <CNN_VS>
2.4446890354

> <CNNaffinity_variance>
0.1688045561

$$$$



 25 28  0  0  0  0  0  0  0  0999 V2000
   -8.7577   -5.3917  -24.9650 C   0  0  0  0  0  0  0  0  0  0  0  0
   -8.9420   -4.0786  -24.2639 C   0  0  0  0  0  0  0  0  0  0  0  0
   -9.9674   -3.0363  -24.5992 C   0  0  0  0  0  0  0  0  0  0  0  0
   -9.7924   -1.8907  -23.6469 C   0  0  0  0  0  0  0  0  0  0  0  0
   -8.6589   -2.2249  -22.7230 N   0  0  0  0  0  0  0  0  0  0  0  0
   -8.1418   -1.3589  -21.6128 C   0  0  0  0  0  0  0  0  0  0  0  0
   -8.7712   -0.0233  -21.3480 O   0  0  0  0  0  0  0  0  0  0  0  0
   -8.1334   -3.5770  -23.1044 C   0  0  0  0  0  0  0  0  0  0  0  0
  -10.6078   -0.6319  -23.6227 C   0  0  0  0  0  0  0  0  0  0  0  0
  -12.0590   -0.6854  -23.2475 C   0  0  0  0  0  0  0  0  0  0  0  0
  -12.8744    0.5734  -23.2233 C   0  0  0  0  0  0  0  0  0  0  0  0
  -12.2384    1.8858  -23.5744 C   0  0  0  0  0  0  0  0  0  0  0  0
  -10.7871    1.9394  -23.9497 C   0  0  0  0  0  0  0  0  0  0  0  0
   -9.9718    0.6805  -23.9738 C   0  0  0  0  0  0  0  0  0  0  0  0
   -6.9953   -1.8285  -20.7672 C   0  0  0  0  0  0  0  0  0  0  0  0
   -5.9624   -0.8494  -20.2935 C   0  0  0  0  0  0  0  0  0  0  0  0
   -5.9431   -0.4154  -18.8578 C   0  0  0  0  0  0  0  0  0  0  0  0
   -4.9103    0.5637  -18.3840 N   0  0  0  0  0  0  0  0  0  0  0  0
   -3.8966    1.1089  -19.3459 C   0  0  0  0  0  0  0  0  0  0  0  0
   -3.9159    0.6749  -20.7817 C   0  0  0  0  0  0  0  0  0  0  0  0
   -2.9022    1.2201  -21.7436 C   0  0  0  0  0  0  0  0  0  0  0  0
   -2.9215    0.7861  -23.1793 C   0  0  0  0  0  0  0  0  0  0  0  0
   -3.9544   -0.1930  -23.6531 C   0  0  0  0  0  0  0  0  0  0  0  0
   -4.9680   -0.7382  -22.6912 C   0  0  0  0  0  0  0  0  0  0  0  0
   -4.9487   -0.3042  -21.2555 C   0  0  0  0  0  0  0  0  0  0  0  0
  2  1  1  0  0  0
  2  3  1  0  0  0
  3  4  1  0  0  0
  4  9  1  0  0  0
  9 10  2  0  0  0
 10 11  1  0  0  0
 11 12  2  0  0  0
 12 13  1  0  0  0
 13 14  2  0  0  0
  4  5  1  0  0  0
  5  6  1  0  0  0
  6  7  2  0  0  0
  6 15  1  0  0  0
 15 16  1  0  0  0
 16 17  2  0  0  0
 17 18  1  0  0  0
 18 19  2  0  0  0
 19 20  1  0  0  0
 20 21  2  0  0  0
 21 22  1  0  0  0
 22 23  2  0  0  0
 23 24  1  0  0  0
 24 25  2  0  0  0
  5  8  1  0  0  0
  8  2  1  0  0  0
 14  9  1  0  0  0
 25 16  1  0  0  0
 25 20  1  0  0  0
M  END
> <minimizedAffinity>
-7.45418

> <CNNscore>
0.4593979716

> <CNNaffinity>
5.1829161644

> <CNN_VS>
2.3810212612

> <CNNaffinity_variance>
0.3820493519

$$$$



 25 28  0  0  0  0  0  0  0  0999 V2000
   -5.3961   -7.1420  -20.9959 C   0  0  0  0  0  0  0  0  0  0  0  0
   -6.1611   -6.4952  -22.1123 C   0  0  0  0  0  0  0  0  0  0  0  0
   -6.4387   -7.0995  -23.4569 C   0  0  0  0  0  0  0  0  0  0  0  0
   -7.2320   -6.1082  -24.2557 C   0  0  0  0  0  0  0  0  0  0  0  0
   -7.4447   -4.8913  -23.4048 N   0  0  0  0  0  0  0  0  0  0  0  0
   -8.1887   -3.6528  -23.8079 C   0  0  0  0  0  0  0  0  0  0  0  0
   -8.8011   -3.5568  -25.1739 O   0  0  0  0  0  0  0  0  0  0  0  0
   -6.7829   -5.1305  -22.0802 C   0  0  0  0  0  0  0  0  0  0  0  0
   -7.7259   -6.3002  -25.6590 C   0  0  0  0  0  0  0  0  0  0  0  0
   -9.1760   -6.5891  -25.9108 C   0  0  0  0  0  0  0  0  0  0  0  0
   -9.6699   -6.7810  -27.3141 C   0  0  0  0  0  0  0  0  0  0  0  0
   -8.7135   -6.6841  -28.4657 C   0  0  0  0  0  0  0  0  0  0  0  0
   -7.2633   -6.3952  -28.2139 C   0  0  0  0  0  0  0  0  0  0  0  0
   -6.7694   -6.2033  -26.8106 C   0  0  0  0  0  0  0  0  0  0  0  0
   -8.3203   -2.5102  -22.8450 C   0  0  0  0  0  0  0  0  0  0  0  0
   -9.1013   -1.2894  -23.2320 C   0  0  0  0  0  0  0  0  0  0  0  0
   -8.3876   -0.0740  -23.7453 C   0  0  0  0  0  0  0  0  0  0  0  0
   -9.1686    1.1467  -24.1323 N   0  0  0  0  0  0  0  0  0  0  0  0
  -10.6632    1.1522  -24.0060 C   0  0  0  0  0  0  0  0  0  0  0  0
  -11.3770   -0.0632  -23.4927 C   0  0  0  0  0  0  0  0  0  0  0  0
  -12.8716   -0.0578  -23.3664 C   0  0  0  0  0  0  0  0  0  0  0  0
  -13.5853   -1.2732  -22.8531 C   0  0  0  0  0  0  0  0  0  0  0  0
  -12.8043   -2.4940  -22.4661 C   0  0  0  0  0  0  0  0  0  0  0  0
  -11.3097   -2.4994  -22.5924 C   0  0  0  0  0  0  0  0  0  0  0  0
  -10.5960   -1.2840  -23.1057 C   0  0  0  0  0  0  0  0  0  0  0  0
  2  1  1  0  0  0
  2  3  1  0  0  0
  3  4  1  0  0  0
  4  9  1  0  0  0
  9 10  2  0  0  0
 10 11  1  0  0  0
 11 12  2  0  0  0
 12 13  1  0  0  0
 13 14  2  0  0  0
  4  5  1  0  0  0
  5  6  1  0  0  0
  6  7  2  0  0  0
  6 15  1  0  0  0
 15 16  1  0  0  0
 16 17  2  0  0  0
 17 18  1  0  0  0
 18 19  2  0  0  0
 19 20  1  0  0  0
 20 21  2  0  0  0
 21 22  1  0  0  0
 22 23  2  0  0  0
 23 24  1  0  0  0
 24 25  2  0  0  0
  5  8  1  0  0  0
  8  2  1  0  0  0
 14  9  1  0  0  0
 25 16  1  0  0  0
 25 20  1  0  0  0
M  END
> <minimizedAffinity>
-6.58818

> <CNNscore>
0.4304769933

> <CNNaffinity>
5.3691287041

> <CNN_VS>
2.3112864494

> <CNNaffinity_variance>
0.2031470835

$$$$
