
     RDKit          2D

 25 29  0  0  0  0  0  0  0  0999 V2000
    3.5260   -1.2990    0.0000 C   0  0  0  0  0  0  0  0  0  0  0  0
    2.7760    0.0000    0.0000 C   0  0  0  0  0  0  0  0  0  0  0  0
    3.5260    1.2990    0.0000 O   0  0  0  0  0  0  0  0  0  0  0  0
    1.2760    0.0000    0.0000 N   0  0  0  0  0  0  0  0  0  0  0  0
    0.3943    1.2135    0.0000 C   0  0  0  0  0  0  0  0  0  0  0  0
   -1.0323    0.7500    0.0000 C   0  0  0  0  0  0  0  0  0  0  0  0
   -1.0323   -0.7500    0.0000 C   0  0  0  0  0  0  0  0  0  0  0  0
    0.3943   -1.2135    0.0000 C   0  0  0  0  0  0  0  0  0  0  0  0
   -1.0323   -1.6771    0.0000 C   0  0  0  0  0  0  0  0  0  0  0  0
   -1.9140   -2.8906    0.0000 C   0  0  0  0  0  0  0  0  0  0  0  0
   -1.4504   -4.3172    0.0000 O   0  0  0  0  0  1  0  0  0  0  0  0
   -3.3405   -2.4271    0.0000 N   0  0  0  0  0  0  0  0  0  0  0  0
   -4.5541   -3.3087    0.0000 C   0  0  0  0  0  0  0  0  0  0  0  0
   -4.3973   -4.8005    0.0000 C   0  0  0  0  0  0  0  0  0  0  0  0
   -5.6108   -5.6822    0.0000 N   0  0  0  0  0  0  0  0  0  0  0  0
   -6.9811   -5.0721    0.0000 C   0  0  0  0  0  0  0  0  0  0  0  0
   -7.1379   -3.5803    0.0000 C   0  0  0  0  0  0  0  0  0  0  0  0
   -8.5082   -2.9702    0.0000 C   0  0  0  0  0  0  0  0  0  0  0  0
   -8.6650   -1.4784    0.0000 C   0  0  0  0  0  0  0  0  0  0  0  0
   -7.4515   -0.5967    0.0000 C   0  0  0  0  0  0  0  0  0  0  0  0
   -6.0812   -1.2068    0.0000 C   0  0  0  0  0  0  0  0  0  0  0  0
   -5.9244   -2.6986    0.0000 C   0  0  0  0  0  0  0  0  0  0  0  0
   -3.3405   -0.9271    0.0000 C   0  0  0  0  0  0  0  0  0  0  0  0
   -4.5541   -0.0454    0.0000 O   0  0  0  0  0  0  0  0  0  0  0  0
   -1.9140   -0.4635    0.0000 N   0  0  0  0  0  0  0  0  0  0  0  0
  1  2  1  0
  2  3  2  0
  2  4  1  0
  4  5  1  0
  6  5  1  6
  6  7  1  0
  7  8  1  0
  8  9  1  0
  9 10  2  0
 10 11  1  0
 10 12  1  0
 12 13  1  0
 13 14  2  0
 14 15  1  0
 15 16  2  0
 16 17  1  0
 17 18  2  0
 18 19  1  0
 19 20  2  0
 20 21  1  0
 21 22  2  0
 12 23  1  0
 23 24  2  0
 23 25  1  0
  8  4  1  6
 25  9  1  0
 25  6  1  0
 22 13  1  0
 22 17  1  0
M  CHG  1  11  -1
M  END
$$$$
