


 42 47  0  0  0  0  0  0  0  0999 V2000
    6.4405   -0.2017   20.9168 N   0  0  0  0  0  0  0  0  0  0  0  0
    5.7607   -0.1742   22.2536 C   0  0  0  0  0  0  0  0  0  0  0  0
    4.4492    0.5360   22.4136 C   0  0  0  0  0  0  0  0  0  0  0  0
    3.1419    1.2026   22.7244 C   0  0  0  0  0  0  0  0  0  0  0  0
    2.2737    1.8508   22.1745 O   0  0  0  0  0  0  0  0  0  0  0  0
    2.8421    0.9804   24.1772 N   0  0  0  0  0  0  0  0  0  0  0  0
    3.9640    0.1763   24.7643 C   0  0  0  0  0  0  0  0  0  0  0  0
    4.9572   -0.0984   23.6743 C   0  0  0  0  0  0  0  0  0  0  0  0
    6.2344   -0.8716   23.8196 C   0  0  0  0  0  0  0  0  0  0  0  0
    3.8174    1.2186   21.2367 C   0  0  0  0  0  0  0  0  0  0  0  0
    2.5059    1.9287   21.3967 C   0  0  0  0  0  0  0  0  0  0  0  0
    1.8742    2.6112   20.2198 C   0  0  0  0  0  0  0  0  0  0  0  0
    0.5626    3.3214   20.3798 Cl  0  0  0  0  0  0  0  0  0  0  0  0
    2.5540    2.5837   18.8830 C   0  0  0  0  0  0  0  0  0  0  0  0
    3.8655    1.8736   18.7230 C   0  0  0  0  0  0  0  0  0  0  0  0
    4.4972    1.1910   19.8999 C   0  0  0  0  0  0  0  0  0  0  0  0
    5.8088    0.4809   19.7399 C   0  0  0  0  0  0  0  0  0  0  0  0
    6.4886    0.4533   18.4031 O   0  0  0  0  0  0  0  0  0  0  0  0
    1.6326    1.4753   24.9136 C   0  0  0  0  0  0  0  0  0  0  0  0
    0.4107    0.6112   25.0153 C   0  0  0  0  0  0  0  0  0  0  0  0
   -0.7987    1.1061   25.7517 N   0  0  0  0  0  0  0  0  0  0  0  0
   -0.7863    2.4651   26.3864 C   0  0  0  0  0  0  0  0  0  0  0  0
    0.4356    3.3293   26.2847 C   0  0  0  0  0  0  0  0  0  0  0  0
    0.4480    4.6884   26.9194 C   0  0  0  0  0  0  0  0  0  0  0  0
    1.6699    5.5524   26.8176 C   0  0  0  0  0  0  0  0  0  0  0  0
    2.8794    5.0575   26.0812 C   0  0  0  0  0  0  0  0  0  0  0  0
    2.8669    3.6985   25.4465 C   0  0  0  0  0  0  0  0  0  0  0  0
    1.6451    2.8343   25.5483 C   0  0  0  0  0  0  0  0  0  0  0  0
    7.7521   -0.9119   20.7568 C   0  0  0  0  0  0  0  0  0  0  0  0
   10.1113   -1.3483   21.7535 N   0  0  0  0  0  0  0  0  0  0  0  0
    8.9665   -0.4170   21.4850 C   0  0  0  0  0  0  0  0  0  0  0  0
    9.0362    1.0091   21.9448 O   0  0  0  0  0  0  0  0  0  0  0  0
   10.0656   -2.2843   21.4518 H   0  0  0  0  0  0  0  0  0  0  0  0
   11.3258   -0.8535   22.4817 C   0  0  0  0  0  0  0  0  0  0  0  0
   11.3354   -3.2336   25.6574 C   0  0  0  0  0  0  0  0  0  0  0  0
   12.6557   -2.8781   26.2741 C   0  0  0  0  0  0  0  0  0  0  0  0
   13.5327   -1.8477   25.6268 C   0  0  0  0  0  0  0  0  0  0  0  0
   13.0894   -1.1728   24.3626 C   0  0  0  0  0  0  0  0  0  0  0  0
   11.7691   -1.5283   23.7458 C   0  0  0  0  0  0  0  0  0  0  0  0
   10.8921   -2.5588   24.3933 C   0  0  0  0  0  0  0  0  0  0  0  0
   10.3924   -4.3601   27.8003 C   0  0  0  0  0  0  0  0  0  0  0  0
   10.4584   -4.2640   26.3047 O   0  0  0  0  0  0  0  0  0  0  0  0
 41 42  1  0  0  0
 42 35  1  0  0  0
 35 36  2  0  0  0
 36 37  1  0  0  0
 37 38  2  0  0  0
 38 39  1  0  0  0
 39 34  1  0  0  0
 34 30  1  0  0  0
 30 31  1  0  0  0
 31 32  2  0  0  0
 31 29  1  0  0  0
 29  1  1  0  0  0
  1  2  1  0  0  0
  3  2  1  0  0  0
  3  4  1  0  0  0
  4  5  2  0  0  0
  4  6  1  0  0  0
  6 19  1  0  0  0
 19 20  2  0  0  0
 20 21  1  0  0  0
 21 22  2  0  0  0
 22 23  1  0  0  0
 23 24  2  0  0  0
 24 25  1  0  0  0
 25 26  2  0  0  0
 26 27  1  0  0  0
 27 28  2  0  0  0
  6  7  1  0  0  0
  7  8  1  0  0  0
  8  9  1  0  0  0
  3 10  1  0  0  0
 10 11  2  0  0  0
 11 12  1  0  0  0
 12 13  1  0  0  0
 12 14  2  0  0  0
 14 15  1  0  0  0
 15 16  2  0  0  0
 16 17  1  0  0  0
 17 18  2  0  0  0
 39 40  2  0  0  0
 40 35  1  0  0  0
 17  1  1  0  0  0
  8  3  1  0  0  0
 16 10  1  0  0  0
 28 19  1  0  0  0
 28 23  1  0  0  0
 30 33  1  0  0  0
M  END
> <minimizedAffinity>
-8.21923

> <CNNscore>
0.5029808879

> <CNNaffinity>
6.6411104202

> <CNN_VS>
3.3403515816

> <CNNaffinity_variance>
0.0251346380

$$$$



 42 47  0  0  0  0  0  0  0  0999 V2000
    6.2376   -0.0955   21.1195 N   0  0  0  0  0  0  0  0  0  0  0  0
    5.6481    0.0455   22.4916 C   0  0  0  0  0  0  0  0  0  0  0  0
    4.3891    0.8366   22.6893 C   0  0  0  0  0  0  0  0  0  0  0  0
    3.1418    1.5926   23.0396 C   0  0  0  0  0  0  0  0  0  0  0  0
    2.2754    2.2569   22.5065 O   0  0  0  0  0  0  0  0  0  0  0  0
    2.9252    1.4696   24.5188 N   0  0  0  0  0  0  0  0  0  0  0  0
    4.0386    0.6375   25.0827 C   0  0  0  0  0  0  0  0  0  0  0  0
    4.9434    0.2463   23.9520 C   0  0  0  0  0  0  0  0  0  0  0  0
    6.1845   -0.5886   24.0644 C   0  0  0  0  0  0  0  0  0  0  0  0
    3.7196    1.4867   21.5149 C   0  0  0  0  0  0  0  0  0  0  0  0
    2.4606    2.2777   21.7126 C   0  0  0  0  0  0  0  0  0  0  0  0
    1.7911    2.9277   20.5383 C   0  0  0  0  0  0  0  0  0  0  0  0
    0.5320    3.7188   20.7359 Cl  0  0  0  0  0  0  0  0  0  0  0  0
    2.3806    2.7868   19.1662 C   0  0  0  0  0  0  0  0  0  0  0  0
    3.6396    1.9957   18.9685 C   0  0  0  0  0  0  0  0  0  0  0  0
    4.3091    1.3457   20.1428 C   0  0  0  0  0  0  0  0  0  0  0  0
    5.5681    0.5546   19.9452 C   0  0  0  0  0  0  0  0  0  0  0  0
    6.1577    0.4136   18.5731 O   0  0  0  0  0  0  0  0  0  0  0  0
    1.7938    2.0727   25.2974 C   0  0  0  0  0  0  0  0  0  0  0  0
    1.9301    3.4514   25.8724 C   0  0  0  0  0  0  0  0  0  0  0  0
    0.7987    4.0545   26.6510 N   0  0  0  0  0  0  0  0  0  0  0  0
   -0.4690    3.2790   26.8545 C   0  0  0  0  0  0  0  0  0  0  0  0
   -0.6053    1.9003   26.2794 C   0  0  0  0  0  0  0  0  0  0  0  0
   -1.8731    1.1247   26.4829 C   0  0  0  0  0  0  0  0  0  0  0  0
   -2.0093   -0.2539   25.9078 C   0  0  0  0  0  0  0  0  0  0  0  0
   -0.8779   -0.8571   25.1292 C   0  0  0  0  0  0  0  0  0  0  0  0
    0.3898   -0.0815   24.9258 C   0  0  0  0  0  0  0  0  0  0  0  0
    0.5261    1.2972   25.5008 C   0  0  0  0  0  0  0  0  0  0  0  0
    7.4967   -0.8866   20.9219 C   0  0  0  0  0  0  0  0  0  0  0  0
    9.9508   -1.3618   21.6301 N   0  0  0  0  0  0  0  0  0  0  0  0
    8.7761   -0.4317   21.5592 C   0  0  0  0  0  0  0  0  0  0  0  0
    8.8807    0.9533   22.1258 O   0  0  0  0  0  0  0  0  0  0  0  0
    9.8821   -2.2708   21.2583 H   0  0  0  0  0  0  0  0  0  0  0  0
   11.2302   -0.9069   22.2675 C   0  0  0  0  0  0  0  0  0  0  0  0
   11.2065   -3.0480   25.6089 C   0  0  0  0  0  0  0  0  0  0  0  0
   12.5008   -2.6158   26.2317 C   0  0  0  0  0  0  0  0  0  0  0  0
   13.3716   -1.6140   25.5331 C   0  0  0  0  0  0  0  0  0  0  0  0
   12.9481   -1.0443   24.2117 C   0  0  0  0  0  0  0  0  0  0  0  0
   11.6537   -1.4765   23.5889 C   0  0  0  0  0  0  0  0  0  0  0  0
   10.7829   -2.4783   24.2875 C   0  0  0  0  0  0  0  0  0  0  0  0
   10.7921   -4.6728   27.5934 C   0  0  0  0  0  0  0  0  0  0  0  0
   10.3357   -4.0497   26.3075 O   0  0  0  0  0  0  0  0  0  0  0  0
 41 42  1  0  0  0
 42 35  1  0  0  0
 35 36  2  0  0  0
 36 37  1  0  0  0
 37 38  2  0  0  0
 38 39  1  0  0  0
 39 34  1  0  0  0
 34 30  1  0  0  0
 30 31  1  0  0  0
 31 32  2  0  0  0
 31 29  1  0  0  0
 29  1  1  0  0  0
  1  2  1  0  0  0
  3  2  1  0  0  0
  3  4  1  0  0  0
  4  5  2  0  0  0
  4  6  1  0  0  0
  6 19  1  0  0  0
 19 20  2  0  0  0
 20 21  1  0  0  0
 21 22  2  0  0  0
 22 23  1  0  0  0
 23 24  2  0  0  0
 24 25  1  0  0  0
 25 26  2  0  0  0
 26 27  1  0  0  0
 27 28  2  0  0  0
  6  7  1  0  0  0
  7  8  1  0  0  0
  8  9  1  0  0  0
  3 10  1  0  0  0
 10 11  2  0  0  0
 11 12  1  0  0  0
 12 13  1  0  0  0
 12 14  2  0  0  0
 14 15  1  0  0  0
 15 16  2  0  0  0
 16 17  1  0  0  0
 17 18  2  0  0  0
 39 40  2  0  0  0
 40 35  1  0  0  0
 17  1  1  0  0  0
  8  3  1  0  0  0
 16 10  1  0  0  0
 28 19  1  0  0  0
 28 23  1  0  0  0
 30 33  1  0  0  0
M  END
> <minimizedAffinity>
-7.72201

> <CNNscore>
0.4365998507

> <CNNaffinity>
6.6217370033

> <CNN_VS>
2.8910493851

> <CNNaffinity_variance>
0.0285750087

$$$$



 42 47  0  0  0  0  0  0  0  0999 V2000
   10.9071    1.5973   22.9242 N   0  0  0  0  0  0  0  0  0  0  0  0
    9.5080    1.3410   23.4005 C   0  0  0  0  0  0  0  0  0  0  0  0
    9.2206    0.1642   24.2851 C   0  0  0  0  0  0  0  0  0  0  0  0
    8.7832   -0.9661   25.1689 C   0  0  0  0  0  0  0  0  0  0  0  0
    9.2468   -1.9301   25.7452 O   0  0  0  0  0  0  0  0  0  0  0  0
    7.3055   -0.8357   25.3913 N   0  0  0  0  0  0  0  0  0  0  0  0
    6.8296    0.3752   24.6448 C   0  0  0  0  0  0  0  0  0  0  0  0
    8.0132    0.9931   23.9612 C   0  0  0  0  0  0  0  0  0  0  0  0
    7.9928    2.2240   23.1040 C   0  0  0  0  0  0  0  0  0  0  0  0
   10.3323   -0.7564   24.6934 C   0  0  0  0  0  0  0  0  0  0  0  0
   10.0449   -1.9332   25.5780 C   0  0  0  0  0  0  0  0  0  0  0  0
   11.1566   -2.8537   25.9863 C   0  0  0  0  0  0  0  0  0  0  0  0
   10.8693   -4.0305   26.8710 Cl  0  0  0  0  0  0  0  0  0  0  0  0
   12.5557   -2.5974   25.5101 C   0  0  0  0  0  0  0  0  0  0  0  0
   12.8431   -1.4206   24.6255 C   0  0  0  0  0  0  0  0  0  0  0  0
   11.7314   -0.5001   24.2172 C   0  0  0  0  0  0  0  0  0  0  0  0
   12.0188    0.6768   23.3325 C   0  0  0  0  0  0  0  0  0  0  0  0
   13.4179    0.9331   22.8563 O   0  0  0  0  0  0  0  0  0  0  0  0
    6.4534   -1.7548   26.2153 C   0  0  0  0  0  0  0  0  0  0  0  0
    6.2255   -3.1684   25.7683 C   0  0  0  0  0  0  0  0  0  0  0  0
    5.3734   -4.0875   26.5924 N   0  0  0  0  0  0  0  0  0  0  0  0
    4.7492   -3.5930   27.8635 C   0  0  0  0  0  0  0  0  0  0  0  0
    4.9771   -2.1794   28.3105 C   0  0  0  0  0  0  0  0  0  0  0  0
    4.3528   -1.6849   29.5818 C   0  0  0  0  0  0  0  0  0  0  0  0
    4.5808   -0.2713   30.0287 C   0  0  0  0  0  0  0  0  0  0  0  0
    5.4329    0.6478   29.2046 C   0  0  0  0  0  0  0  0  0  0  0  0
    6.0571    0.1533   27.9335 C   0  0  0  0  0  0  0  0  0  0  0  0
    5.8292   -1.2603   27.4865 C   0  0  0  0  0  0  0  0  0  0  0  0
   11.1944    2.7741   22.0396 C   0  0  0  0  0  0  0  0  0  0  0  0
   10.9048    5.3556   21.9925 N   0  0  0  0  0  0  0  0  0  0  0  0
   11.4542    4.1217   22.6450 C   0  0  0  0  0  0  0  0  0  0  0  0
   12.2633    4.2354   23.9030 O   0  0  0  0  0  0  0  0  0  0  0  0
   10.3738    5.2809   21.1669 H   0  0  0  0  0  0  0  0  0  0  0  0
   11.1646    6.7032   22.5979 C   0  0  0  0  0  0  0  0  0  0  0  0
    9.9500    8.5991   25.8660 C   0  0  0  0  0  0  0  0  0  0  0  0
    8.4902    8.2542   25.8678 C   0  0  0  0  0  0  0  0  0  0  0  0
    7.9219    7.3922   24.7798 C   0  0  0  0  0  0  0  0  0  0  0  0
    8.8134    6.8752   23.6897 C   0  0  0  0  0  0  0  0  0  0  0  0
   10.2731    7.2201   23.6879 C   0  0  0  0  0  0  0  0  0  0  0  0
   10.8415    8.0822   24.7760 C   0  0  0  0  0  0  0  0  0  0  0  0
   11.5432    8.9017   27.8959 C   0  0  0  0  0  0  0  0  0  0  0  0
   10.5184    9.4611   26.9541 O   0  0  0  0  0  0  0  0  0  0  0  0
 41 42  1  0  0  0
 42 35  1  0  0  0
 35 36  2  0  0  0
 36 37  1  0  0  0
 37 38  2  0  0  0
 38 39  1  0  0  0
 39 34  1  0  0  0
 34 30  1  0  0  0
 30 31  1  0  0  0
 31 32  2  0  0  0
 31 29  1  0  0  0
 29  1  1  0  0  0
  1  2  1  0  0  0
  3  2  1  0  0  0
  3  4  1  0  0  0
  4  5  2  0  0  0
  4  6  1  0  0  0
  6 19  1  0  0  0
 19 20  2  0  0  0
 20 21  1  0  0  0
 21 22  2  0  0  0
 22 23  1  0  0  0
 23 24  2  0  0  0
 24 25  1  0  0  0
 25 26  2  0  0  0
 26 27  1  0  0  0
 27 28  2  0  0  0
  6  7  1  0  0  0
  7  8  1  0  0  0
  8  9  1  0  0  0
  3 10  1  0  0  0
 10 11  2  0  0  0
 11 12  1  0  0  0
 12 13  1  0  0  0
 12 14  2  0  0  0
 14 15  1  0  0  0
 15 16  2  0  0  0
 16 17  1  0  0  0
 17 18  2  0  0  0
 39 40  2  0  0  0
 40 35  1  0  0  0
 17  1  1  0  0  0
  8  3  1  0  0  0
 16 10  1  0  0  0
 28 19  1  0  0  0
 28 23  1  0  0  0
 30 33  1  0  0  0
M  END
> <minimizedAffinity>
-8.03774

> <CNNscore>
0.2410095930

> <CNNaffinity>
6.6859259605

> <CNN_VS>
1.6113723516

> <CNNaffinity_variance>
0.1737357527

$$$$



 42 47  0  0  0  0  0  0  0  0999 V2000
   10.8866    1.4279   22.8357 N   0  0  0  0  0  0  0  0  0  0  0  0
    9.4971    1.0968   23.2938 C   0  0  0  0  0  0  0  0  0  0  0  0
    9.2676   -0.0656   24.2136 C   0  0  0  0  0  0  0  0  0  0  0  0
    8.8855   -1.1914   25.1281 C   0  0  0  0  0  0  0  0  0  0  0  0
    9.3980   -2.1030   25.7468 O   0  0  0  0  0  0  0  0  0  0  0  0
    7.3980   -1.1506   25.3173 N   0  0  0  0  0  0  0  0  0  0  0  0
    6.8608    0.0006   24.5197 C   0  0  0  0  0  0  0  0  0  0  0  0
    8.0163    0.6711   23.8375 C   0  0  0  0  0  0  0  0  0  0  0  0
    7.9347    1.8682   22.9374 C   0  0  0  0  0  0  0  0  0  0  0  0
   10.4276   -0.8970   24.6754 C   0  0  0  0  0  0  0  0  0  0  0  0
   10.1981   -2.0595   25.5952 C   0  0  0  0  0  0  0  0  0  0  0  0
   11.3580   -2.8909   26.0569 C   0  0  0  0  0  0  0  0  0  0  0  0
   11.1286   -4.0533   26.9768 Cl  0  0  0  0  0  0  0  0  0  0  0  0
   12.7475   -2.5598   25.5988 C   0  0  0  0  0  0  0  0  0  0  0  0
   12.9770   -1.3974   24.6791 C   0  0  0  0  0  0  0  0  0  0  0  0
   11.8170   -0.5660   24.2173 C   0  0  0  0  0  0  0  0  0  0  0  0
   12.0465    0.5965   23.2975 C   0  0  0  0  0  0  0  0  0  0  0  0
   13.4360    0.9275   22.8394 O   0  0  0  0  0  0  0  0  0  0  0  0
    6.5897   -2.0950   26.1567 C   0  0  0  0  0  0  0  0  0  0  0  0
    6.2793   -1.7523   27.5837 C   0  0  0  0  0  0  0  0  0  0  0  0
    5.4710   -2.6967   28.4231 N   0  0  0  0  0  0  0  0  0  0  0  0
    4.9731   -3.9839   27.8356 C   0  0  0  0  0  0  0  0  0  0  0  0
    5.2835   -4.3267   26.4087 C   0  0  0  0  0  0  0  0  0  0  0  0
    4.7856   -5.6139   25.8211 C   0  0  0  0  0  0  0  0  0  0  0  0
    5.0961   -5.9566   24.3942 C   0  0  0  0  0  0  0  0  0  0  0  0
    5.9044   -5.0122   23.5547 C   0  0  0  0  0  0  0  0  0  0  0  0
    6.4022   -3.7250   24.1423 C   0  0  0  0  0  0  0  0  0  0  0  0
    6.0918   -3.3822   25.5692 C   0  0  0  0  0  0  0  0  0  0  0  0
   11.1160    2.5903   21.9159 C   0  0  0  0  0  0  0  0  0  0  0  0
   10.4218    4.9357   22.7918 N   0  0  0  0  0  0  0  0  0  0  0  0
   11.4894    3.9297   22.4787 C   0  0  0  0  0  0  0  0  0  0  0  0
   12.9305    4.2630   22.7283 O   0  0  0  0  0  0  0  0  0  0  0  0
    9.4760    4.7169   22.6279 H   0  0  0  0  0  0  0  0  0  0  0  0
   10.7952    6.2751   23.3546 C   0  0  0  0  0  0  0  0  0  0  0  0
    7.3299    8.1968   23.1338 C   0  0  0  0  0  0  0  0  0  0  0  0
    7.7601    9.5957   23.4625 C   0  0  0  0  0  0  0  0  0  0  0  0
    9.2019    9.8877   23.7553 C   0  0  0  0  0  0  0  0  0  0  0  0
   10.2137    8.7808   23.7193 C   0  0  0  0  0  0  0  0  0  0  0  0
    9.7835    7.3819   23.3906 C   0  0  0  0  0  0  0  0  0  0  0  0
    8.3416    7.0899   23.0978 C   0  0  0  0  0  0  0  0  0  0  0  0
    5.4778    7.4506   21.4716 C   0  0  0  0  0  0  0  0  0  0  0  0
    5.8881    7.9048   22.8411 O   0  0  0  0  0  0  0  0  0  0  0  0
 41 42  1  0  0  0
 42 35  1  0  0  0
 35 36  2  0  0  0
 36 37  1  0  0  0
 37 38  2  0  0  0
 38 39  1  0  0  0
 39 34  1  0  0  0
 34 30  1  0  0  0
 30 31  1  0  0  0
 31 32  2  0  0  0
 31 29  1  0  0  0
 29  1  1  0  0  0
  1  2  1  0  0  0
  3  2  1  0  0  0
  3  4  1  0  0  0
  4  5  2  0  0  0
  4  6  1  0  0  0
  6 19  1  0  0  0
 19 20  2  0  0  0
 20 21  1  0  0  0
 21 22  2  0  0  0
 22 23  1  0  0  0
 23 24  2  0  0  0
 24 25  1  0  0  0
 25 26  2  0  0  0
 26 27  1  0  0  0
 27 28  2  0  0  0
  6  7  1  0  0  0
  7  8  1  0  0  0
  8  9  1  0  0  0
  3 10  1  0  0  0
 10 11  2  0  0  0
 11 12  1  0  0  0
 12 13  1  0  0  0
 12 14  2  0  0  0
 14 15  1  0  0  0
 15 16  2  0  0  0
 16 17  1  0  0  0
 17 18  2  0  0  0
 39 40  2  0  0  0
 40 35  1  0  0  0
 17  1  1  0  0  0
  8  3  1  0  0  0
 16 10  1  0  0  0
 28 19  1  0  0  0
 28 23  1  0  0  0
 30 33  1  0  0  0
M  END
> <minimizedAffinity>
-8.35760

> <CNNscore>
0.2105289400

> <CNNaffinity>
6.7091627121

> <CNN_VS>
1.4124729633

> <CNNaffinity_variance>
0.1584591568

$$$$



 42 47  0  0  0  0  0  0  0  0999 V2000
    9.6610    0.7677   22.6306 N   0  0  0  0  0  0  0  0  0  0  0  0
    8.5529   -0.2333   22.4892 C   0  0  0  0  0  0  0  0  0  0  0  0
    8.5991   -1.5176   23.2625 C   0  0  0  0  0  0  0  0  0  0  0  0
    8.5086   -2.8383   23.9679 C   0  0  0  0  0  0  0  0  0  0  0  0
    9.1314   -3.5133   24.7635 O   0  0  0  0  0  0  0  0  0  0  0  0
    7.2405   -3.5106   23.5322 N   0  0  0  0  0  0  0  0  0  0  0  0
    6.5472   -2.6055   22.5575 C   0  0  0  0  0  0  0  0  0  0  0  0
    7.3869   -1.3737   22.3909 C   0  0  0  0  0  0  0  0  0  0  0  0
    7.0700   -0.2035   21.5076 C   0  0  0  0  0  0  0  0  0  0  0  0
    9.7536   -1.8011   24.1774 C   0  0  0  0  0  0  0  0  0  0  0  0
    9.7999   -3.0855   24.9508 C   0  0  0  0  0  0  0  0  0  0  0  0
   10.9543   -3.3689   25.8656 C   0  0  0  0  0  0  0  0  0  0  0  0
   11.0007   -4.6534   26.6390 Cl  0  0  0  0  0  0  0  0  0  0  0  0
   12.0625   -2.3679   26.0070 C   0  0  0  0  0  0  0  0  0  0  0  0
   12.0162   -1.0835   25.2337 C   0  0  0  0  0  0  0  0  0  0  0  0
   10.8618   -0.8001   24.3189 C   0  0  0  0  0  0  0  0  0  0  0  0
   10.8155    0.4843   23.5454 C   0  0  0  0  0  0  0  0  0  0  0  0
   11.9236    1.4853   23.6869 O   0  0  0  0  0  0  0  0  0  0  0  0
    6.7515   -4.8525   23.9907 C   0  0  0  0  0  0  0  0  0  0  0  0
    7.3352   -6.1039   23.4047 C   0  0  0  0  0  0  0  0  0  0  0  0
    6.8462   -7.4458   23.8632 N   0  0  0  0  0  0  0  0  0  0  0  0
    5.7735   -7.5363   24.9077 C   0  0  0  0  0  0  0  0  0  0  0  0
    5.1897   -6.2849   25.4937 C   0  0  0  0  0  0  0  0  0  0  0  0
    4.1169   -6.3755   26.5383 C   0  0  0  0  0  0  0  0  0  0  0  0
    3.5333   -5.1241   27.1242 C   0  0  0  0  0  0  0  0  0  0  0  0
    4.0223   -3.7822   26.6658 C   0  0  0  0  0  0  0  0  0  0  0  0
    5.0950   -3.6917   25.6212 C   0  0  0  0  0  0  0  0  0  0  0  0
    5.6787   -4.9430   25.0352 C   0  0  0  0  0  0  0  0  0  0  0  0
    9.6147    2.0522   21.8572 C   0  0  0  0  0  0  0  0  0  0  0  0
    9.8847    4.4459   22.8306 N   0  0  0  0  0  0  0  0  0  0  0  0
   10.4930    3.2005   22.2571 C   0  0  0  0  0  0  0  0  0  0  0  0
   11.9798    3.1034   22.0834 O   0  0  0  0  0  0  0  0  0  0  0  0
    8.9089    4.5096   22.9446 H   0  0  0  0  0  0  0  0  0  0  0  0
   10.7630    5.5942   23.2304 C   0  0  0  0  0  0  0  0  0  0  0  0
   10.2035    8.8759   25.3907 C   0  0  0  0  0  0  0  0  0  0  0  0
    8.9270    9.3926   24.7960 C   0  0  0  0  0  0  0  0  0  0  0  0
    8.2626    8.6431   23.6794 C   0  0  0  0  0  0  0  0  0  0  0  0
    8.8746    7.3769   23.1575 C   0  0  0  0  0  0  0  0  0  0  0  0
   10.1510    6.8603   23.7523 C   0  0  0  0  0  0  0  0  0  0  0  0
   10.8155    7.6098   24.8689 C   0  0  0  0  0  0  0  0  0  0  0  0
   10.1227    9.8874   27.7825 C   0  0  0  0  0  0  0  0  0  0  0  0
   10.8679    9.6254   26.5073 O   0  0  0  0  0  0  0  0  0  0  0  0
 41 42  1  0  0  0
 42 35  1  0  0  0
 35 36  2  0  0  0
 36 37  1  0  0  0
 37 38  2  0  0  0
 38 39  1  0  0  0
 39 34  1  0  0  0
 34 30  1  0  0  0
 30 31  1  0  0  0
 31 32  2  0  0  0
 31 29  1  0  0  0
 29  1  1  0  0  0
  1  2  1  0  0  0
  3  2  1  0  0  0
  3  4  1  0  0  0
  4  5  2  0  0  0
  4  6  1  0  0  0
  6 19  1  0  0  0
 19 20  2  0  0  0
 20 21  1  0  0  0
 21 22  2  0  0  0
 22 23  1  0  0  0
 23 24  2  0  0  0
 24 25  1  0  0  0
 25 26  2  0  0  0
 26 27  1  0  0  0
 27 28  2  0  0  0
  6  7  1  0  0  0
  7  8  1  0  0  0
  8  9  1  0  0  0
  3 10  1  0  0  0
 10 11  2  0  0  0
 11 12  1  0  0  0
 12 13  1  0  0  0
 12 14  2  0  0  0
 14 15  1  0  0  0
 15 16  2  0  0  0
 16 17  1  0  0  0
 17 18  2  0  0  0
 39 40  2  0  0  0
 40 35  1  0  0  0
 17  1  1  0  0  0
  8  3  1  0  0  0
 16 10  1  0  0  0
 28 19  1  0  0  0
 28 23  1  0  0  0
 30 33  1  0  0  0
M  END
> <minimizedAffinity>
-8.69260

> <CNNscore>
0.1883575022

> <CNNaffinity>
6.6006774902

> <CNN_VS>
1.2432870865

> <CNNaffinity_variance>
0.0529495552

$$$$



 42 47  0  0  0  0  0  0  0  0999 V2000
    5.7283    0.0617   21.3128 N   0  0  0  0  0  0  0  0  0  0  0  0
    4.7485    0.8034   20.4527 C   0  0  0  0  0  0  0  0  0  0  0  0
    3.5196    1.4072   21.0653 C   0  0  0  0  0  0  0  0  0  0  0  0
    2.2534    2.0607   21.5338 C   0  0  0  0  0  0  0  0  0  0  0  0
    1.6192    2.2362   22.5553 O   0  0  0  0  0  0  0  0  0  0  0  0
    1.5851    2.6830   20.3438 N   0  0  0  0  0  0  0  0  0  0  0  0
    2.4384    2.4141   19.1398 C   0  0  0  0  0  0  0  0  0  0  0  0
    3.6340    1.6256   19.5857 C   0  0  0  0  0  0  0  0  0  0  0  0
    4.7482    1.1406   18.7064 C   0  0  0  0  0  0  0  0  0  0  0  0
    3.2706    1.2693   22.5381 C   0  0  0  0  0  0  0  0  0  0  0  0
    2.0417    1.8730   23.1507 C   0  0  0  0  0  0  0  0  0  0  0  0
    1.7928    1.7351   24.6235 C   0  0  0  0  0  0  0  0  0  0  0  0
    0.5639    2.3389   25.2362 Cl  0  0  0  0  0  0  0  0  0  0  0  0
    2.7726    0.9934   25.4835 C   0  0  0  0  0  0  0  0  0  0  0  0
    4.0015    0.3896   24.8709 C   0  0  0  0  0  0  0  0  0  0  0  0
    4.2505    0.5276   23.3982 C   0  0  0  0  0  0  0  0  0  0  0  0
    5.4794   -0.0762   22.7855 C   0  0  0  0  0  0  0  0  0  0  0  0
    6.4592   -0.8179   23.6456 O   0  0  0  0  0  0  0  0  0  0  0  0
    0.2909    3.4411   20.3557 C   0  0  0  0  0  0  0  0  0  0  0  0
   -1.0129    2.6995   20.3440 C   0  0  0  0  0  0  0  0  0  0  0  0
   -2.3072    3.4576   20.3559 N   0  0  0  0  0  0  0  0  0  0  0  0
   -2.2976    4.9574   20.3795 C   0  0  0  0  0  0  0  0  0  0  0  0
   -0.9938    5.6990   20.3911 C   0  0  0  0  0  0  0  0  0  0  0  0
   -0.9843    7.1989   20.4146 C   0  0  0  0  0  0  0  0  0  0  0  0
    0.3195    7.9404   20.4263 C   0  0  0  0  0  0  0  0  0  0  0  0
    1.6138    7.1823   20.4144 C   0  0  0  0  0  0  0  0  0  0  0  0
    1.6042    5.6826   20.3908 C   0  0  0  0  0  0  0  0  0  0  0  0
    0.3004    4.9409   20.3792 C   0  0  0  0  0  0  0  0  0  0  0  0
    6.9572   -0.5421   20.7001 C   0  0  0  0  0  0  0  0  0  0  0  0
    9.3414   -1.1641   21.5241 N   0  0  0  0  0  0  0  0  0  0  0  0
    8.3163   -0.1250   21.1788 C   0  0  0  0  0  0  0  0  0  0  0  0
    8.6502    1.3314   21.3121 O   0  0  0  0  0  0  0  0  0  0  0  0
    9.1222   -2.1199   21.4366 H   0  0  0  0  0  0  0  0  0  0  0  0
   10.7004   -0.7470   22.0027 C   0  0  0  0  0  0  0  0  0  0  0  0
   11.1000   -3.0157   25.2344 C   0  0  0  0  0  0  0  0  0  0  0  0
   12.3675   -2.4618   25.8145 C   0  0  0  0  0  0  0  0  0  0  0  0
   13.0794   -1.3364   25.1241 C   0  0  0  0  0  0  0  0  0  0  0  0
   12.5236   -0.7648   23.8535 C   0  0  0  0  0  0  0  0  0  0  0  0
   11.2561   -1.3186   23.2733 C   0  0  0  0  0  0  0  0  0  0  0  0
   10.5443   -2.4441   23.9638 C   0  0  0  0  0  0  0  0  0  0  0  0
   10.8530   -4.6080   27.2724 C   0  0  0  0  0  0  0  0  0  0  0  0
   10.3882   -4.1411   25.9248 O   0  0  0  0  0  0  0  0  0  0  0  0
 41 42  1  0  0  0
 42 35  1  0  0  0
 35 36  2  0  0  0
 36 37  1  0  0  0
 37 38  2  0  0  0
 38 39  1  0  0  0
 39 34  1  0  0  0
 34 30  1  0  0  0
 30 31  1  0  0  0
 31 32  2  0  0  0
 31 29  1  0  0  0
 29  1  1  0  0  0
  1  2  1  0  0  0
  3  2  1  0  0  0
  3  4  1  0  0  0
  4  5  2  0  0  0
  4  6  1  0  0  0
  6 19  1  0  0  0
 19 20  2  0  0  0
 20 21  1  0  0  0
 21 22  2  0  0  0
 22 23  1  0  0  0
 23 24  2  0  0  0
 24 25  1  0  0  0
 25 26  2  0  0  0
 26 27  1  0  0  0
 27 28  2  0  0  0
  6  7  1  0  0  0
  7  8  1  0  0  0
  8  9  1  0  0  0
  3 10  1  0  0  0
 10 11  2  0  0  0
 11 12  1  0  0  0
 12 13  1  0  0  0
 12 14  2  0  0  0
 14 15  1  0  0  0
 15 16  2  0  0  0
 16 17  1  0  0  0
 17 18  2  0  0  0
 39 40  2  0  0  0
 40 35  1  0  0  0
 17  1  1  0  0  0
  8  3  1  0  0  0
 16 10  1  0  0  0
 28 19  1  0  0  0
 28 23  1  0  0  0
 30 33  1  0  0  0
M  END
> <minimizedAffinity>
-8.84586

> <CNNscore>
0.1853234768

> <CNNaffinity>
6.0758614540

> <CNN_VS>
1.1259998083

> <CNNaffinity_variance>
0.0361633673

$$$$



 42 47  0  0  0  0  0  0  0  0999 V2000
   10.9260    1.5285   22.8710 N   0  0  0  0  0  0  0  0  0  0  0  0
    9.5304    1.2738   23.3585 C   0  0  0  0  0  0  0  0  0  0  0  0
    9.2581    0.1288   24.2884 C   0  0  0  0  0  0  0  0  0  0  0  0
    8.8353   -0.9716   25.2160 C   0  0  0  0  0  0  0  0  0  0  0  0
    9.3110   -1.9068   25.8287 O   0  0  0  0  0  0  0  0  0  0  0  0
    7.3562   -0.8507   25.4348 N   0  0  0  0  0  0  0  0  0  0  0  0
    6.8650    0.3244   24.6424 C   0  0  0  0  0  0  0  0  0  0  0  0
    8.0404    0.9298   23.9340 C   0  0  0  0  0  0  0  0  0  0  0  0
    8.0044    2.1261   23.0298 C   0  0  0  0  0  0  0  0  0  0  0  0
   10.3813   -0.7616   24.7309 C   0  0  0  0  0  0  0  0  0  0  0  0
   10.1090   -1.9066   25.6608 C   0  0  0  0  0  0  0  0  0  0  0  0
   11.2322   -2.7969   26.1032 C   0  0  0  0  0  0  0  0  0  0  0  0
   10.9599   -3.9420   27.0331 Cl  0  0  0  0  0  0  0  0  0  0  0  0
   12.6277   -2.5422   25.6157 C   0  0  0  0  0  0  0  0  0  0  0  0
   12.9000   -1.3972   24.6858 C   0  0  0  0  0  0  0  0  0  0  0  0
   11.7769   -0.5069   24.2434 C   0  0  0  0  0  0  0  0  0  0  0  0
   12.0492    0.6382   23.3134 C   0  0  0  0  0  0  0  0  0  0  0  0
   13.4447    0.8929   22.8259 O   0  0  0  0  0  0  0  0  0  0  0  0
    6.5160   -1.7475   26.2949 C   0  0  0  0  0  0  0  0  0  0  0  0
    6.2972   -3.1775   25.8982 C   0  0  0  0  0  0  0  0  0  0  0  0
    5.4570   -4.0742   26.7583 N   0  0  0  0  0  0  0  0  0  0  0  0
    4.8356   -3.5410   28.0151 C   0  0  0  0  0  0  0  0  0  0  0  0
    5.0544   -2.1111   28.4118 C   0  0  0  0  0  0  0  0  0  0  0  0
    4.4329   -1.5779   29.6687 C   0  0  0  0  0  0  0  0  0  0  0  0
    4.6518   -0.1479   30.0652 C   0  0  0  0  0  0  0  0  0  0  0  0
    5.4920    0.7489   29.2051 C   0  0  0  0  0  0  0  0  0  0  0  0
    6.1134    0.2157   27.9483 C   0  0  0  0  0  0  0  0  0  0  0  0
    5.8946   -1.2143   27.5517 C   0  0  0  0  0  0  0  0  0  0  0  0
   11.1983    2.6736   21.9410 C   0  0  0  0  0  0  0  0  0  0  0  0
   11.1940    5.2612   21.7082 N   0  0  0  0  0  0  0  0  0  0  0  0
   11.5260    4.0283   22.4954 C   0  0  0  0  0  0  0  0  0  0  0  0
   12.1859    4.1501   23.8370 O   0  0  0  0  0  0  0  0  0  0  0  0
   10.7609    5.1812   20.8277 H   0  0  0  0  0  0  0  0  0  0  0  0
   11.5217    6.6159   22.2625 C   0  0  0  0  0  0  0  0  0  0  0  0
    8.0866    7.6099   23.9834 C   0  0  0  0  0  0  0  0  0  0  0  0
    8.5084    8.8017   24.7908 C   0  0  0  0  0  0  0  0  0  0  0  0
    9.9346    9.2648   24.7554 C   0  0  0  0  0  0  0  0  0  0  0  0
   10.9391    8.5362   23.9126 C   0  0  0  0  0  0  0  0  0  0  0  0
   10.5173    7.3445   23.1053 C   0  0  0  0  0  0  0  0  0  0  0  0
    9.0910    6.8813   23.1407 C   0  0  0  0  0  0  0  0  0  0  0  0
    5.8937    6.9808   22.7402 C   0  0  0  0  0  0  0  0  0  0  0  0
    6.6603    7.1468   24.0188 O   0  0  0  0  0  0  0  0  0  0  0  0
 41 42  1  0  0  0
 42 35  1  0  0  0
 35 36  2  0  0  0
 36 37  1  0  0  0
 37 38  2  0  0  0
 38 39  1  0  0  0
 39 34  1  0  0  0
 34 30  1  0  0  0
 30 31  1  0  0  0
 31 32  2  0  0  0
 31 29  1  0  0  0
 29  1  1  0  0  0
  1  2  1  0  0  0
  3  2  1  0  0  0
  3  4  1  0  0  0
  4  5  2  0  0  0
  4  6  1  0  0  0
  6 19  1  0  0  0
 19 20  2  0  0  0
 20 21  1  0  0  0
 21 22  2  0  0  0
 22 23  1  0  0  0
 23 24  2  0  0  0
 24 25  1  0  0  0
 25 26  2  0  0  0
 26 27  1  0  0  0
 27 28  2  0  0  0
  6  7  1  0  0  0
  7  8  1  0  0  0
  8  9  1  0  0  0
  3 10  1  0  0  0
 10 11  2  0  0  0
 11 12  1  0  0  0
 12 13  1  0  0  0
 12 14  2  0  0  0
 14 15  1  0  0  0
 15 16  2  0  0  0
 16 17  1  0  0  0
 17 18  2  0  0  0
 39 40  2  0  0  0
 40 35  1  0  0  0
 17  1  1  0  0  0
  8  3  1  0  0  0
 16 10  1  0  0  0
 28 19  1  0  0  0
 28 23  1  0  0  0
 30 33  1  0  0  0
M  END
> <minimizedAffinity>
-8.07750

> <CNNscore>
0.1565348655

> <CNNaffinity>
6.6250991821

> <CNN_VS>
1.0370590687

> <CNNaffinity_variance>
0.1483439356

$$$$



 42 47  0  0  0  0  0  0  0  0999 V2000
   10.1490    0.6167   22.7799 N   0  0  0  0  0  0  0  0  0  0  0  0
    8.7647    0.2070   23.1872 C   0  0  0  0  0  0  0  0  0  0  0  0
    8.5697   -0.9470   24.1254 C   0  0  0  0  0  0  0  0  0  0  0  0
    8.2204   -2.0744   25.0511 C   0  0  0  0  0  0  0  0  0  0  0  0
    8.7623   -2.9369   25.7135 O   0  0  0  0  0  0  0  0  0  0  0  0
    6.7265   -2.1255   25.1764 N   0  0  0  0  0  0  0  0  0  0  0  0
    6.1525   -1.0295   24.3281 C   0  0  0  0  0  0  0  0  0  0  0  0
    7.2917   -0.3012   23.6786 C   0  0  0  0  0  0  0  0  0  0  0  0
    7.1735    0.8677   22.7461 C   0  0  0  0  0  0  0  0  0  0  0  0
    9.7589   -1.6912   24.6564 C   0  0  0  0  0  0  0  0  0  0  0  0
    9.5638   -2.8452   25.5946 C   0  0  0  0  0  0  0  0  0  0  0  0
   10.7530   -3.5894   26.1255 C   0  0  0  0  0  0  0  0  0  0  0  0
   10.5580   -4.7434   27.0638 Cl  0  0  0  0  0  0  0  0  0  0  0  0
   12.1373   -3.1796   25.7182 C   0  0  0  0  0  0  0  0  0  0  0  0
   12.3324   -2.0257   24.7800 C   0  0  0  0  0  0  0  0  0  0  0  0
   11.1432   -1.2815   24.2491 C   0  0  0  0  0  0  0  0  0  0  0  0
   11.3382   -0.1275   23.3108 C   0  0  0  0  0  0  0  0  0  0  0  0
   12.7225    0.2823   22.9035 O   0  0  0  0  0  0  0  0  0  0  0  0
    5.9440   -3.1011   26.0045 C   0  0  0  0  0  0  0  0  0  0  0  0
    5.6900   -4.4871   25.4901 C   0  0  0  0  0  0  0  0  0  0  0  0
    4.9075   -5.4628   26.3182 N   0  0  0  0  0  0  0  0  0  0  0  0
    4.3790   -5.0525   27.6607 C   0  0  0  0  0  0  0  0  0  0  0  0
    4.6329   -3.6665   28.1750 C   0  0  0  0  0  0  0  0  0  0  0  0
    4.1043   -3.2562   29.5176 C   0  0  0  0  0  0  0  0  0  0  0  0
    4.3583   -1.8702   30.0319 C   0  0  0  0  0  0  0  0  0  0  0  0
    5.1408   -0.8945   29.2038 C   0  0  0  0  0  0  0  0  0  0  0  0
    5.6694   -1.3048   27.8613 C   0  0  0  0  0  0  0  0  0  0  0  0
    5.4154   -2.6908   27.3469 C   0  0  0  0  0  0  0  0  0  0  0  0
   10.3440    1.7707   21.8416 C   0  0  0  0  0  0  0  0  0  0  0  0
   11.4981    4.0268   21.2687 N   0  0  0  0  0  0  0  0  0  0  0  0
   11.1949    2.9358   22.2524 C   0  0  0  0  0  0  0  0  0  0  0  0
   11.7424    3.0098   23.6470 O   0  0  0  0  0  0  0  0  0  0  0  0
   11.1387    3.9782   20.3535 H   0  0  0  0  0  0  0  0  0  0  0  0
   12.3489    5.1919   21.6795 C   0  0  0  0  0  0  0  0  0  0  0  0
   10.0161    7.4103   24.0004 C   0  0  0  0  0  0  0  0  0  0  0  0
   10.4570    8.7898   23.6098 C   0  0  0  0  0  0  0  0  0  0  0  0
   11.5285    8.9700   22.5757 C   0  0  0  0  0  0  0  0  0  0  0  0
   12.1592    7.7706   21.9322 C   0  0  0  0  0  0  0  0  0  0  0  0
   11.7183    6.3912   22.3229 C   0  0  0  0  0  0  0  0  0  0  0  0
   10.6467    6.2110   23.3571 C   0  0  0  0  0  0  0  0  0  0  0  0
    7.5016    7.3806   24.6535 C   0  0  0  0  0  0  0  0  0  0  0  0
    8.9446    7.2301   25.0345 O   0  0  0  0  0  0  0  0  0  0  0  0
 41 42  1  0  0  0
 42 35  1  0  0  0
 35 36  2  0  0  0
 36 37  1  0  0  0
 37 38  2  0  0  0
 38 39  1  0  0  0
 39 34  1  0  0  0
 34 30  1  0  0  0
 30 31  1  0  0  0
 31 32  2  0  0  0
 31 29  1  0  0  0
 29  1  1  0  0  0
  1  2  1  0  0  0
  3  2  1  0  0  0
  3  4  1  0  0  0
  4  5  2  0  0  0
  4  6  1  0  0  0
  6 19  1  0  0  0
 19 20  2  0  0  0
 20 21  1  0  0  0
 21 22  2  0  0  0
 22 23  1  0  0  0
 23 24  2  0  0  0
 24 25  1  0  0  0
 25 26  2  0  0  0
 26 27  1  0  0  0
 27 28  2  0  0  0
  6  7  1  0  0  0
  7  8  1  0  0  0
  8  9  1  0  0  0
  3 10  1  0  0  0
 10 11  2  0  0  0
 11 12  1  0  0  0
 12 13  1  0  0  0
 12 14  2  0  0  0
 14 15  1  0  0  0
 15 16  2  0  0  0
 16 17  1  0  0  0
 17 18  2  0  0  0
 39 40  2  0  0  0
 40 35  1  0  0  0
 17  1  1  0  0  0
  8  3  1  0  0  0
 16 10  1  0  0  0
 28 19  1  0  0  0
 28 23  1  0  0  0
 30 33  1  0  0  0
M  END
> <minimizedAffinity>
-7.75956

> <CNNscore>
0.1522378772

> <CNNaffinity>
6.6665763855

> <CNN_VS>
1.0149054527

> <CNNaffinity_variance>
0.1599564999

$$$$



 42 47  0  0  0  0  0  0  0  0999 V2000
    9.6754    0.4873   22.8580 N   0  0  0  0  0  0  0  0  0  0  0  0
    8.5421   -0.4849   22.7152 C   0  0  0  0  0  0  0  0  0  0  0  0
    8.5578   -1.7731   23.4834 C   0  0  0  0  0  0  0  0  0  0  0  0
    8.4357   -3.0939   24.1839 C   0  0  0  0  0  0  0  0  0  0  0  0
    9.0431   -3.7874   24.9754 O   0  0  0  0  0  0  0  0  0  0  0  0
    7.1501   -3.7324   23.7485 N   0  0  0  0  0  0  0  0  0  0  0  0
    6.4777   -2.8062   22.7789 C   0  0  0  0  0  0  0  0  0  0  0  0
    7.3477   -1.5954   22.6151 C   0  0  0  0  0  0  0  0  0  0  0  0
    7.0583   -0.4141   21.7372 C   0  0  0  0  0  0  0  0  0  0  0  0
    9.7068   -2.0891   24.3945 C   0  0  0  0  0  0  0  0  0  0  0  0
    9.7225   -3.3773   25.1627 C   0  0  0  0  0  0  0  0  0  0  0  0
   10.8715   -3.6933   26.0738 C   0  0  0  0  0  0  0  0  0  0  0  0
   10.8873   -4.9815   26.8421 Cl  0  0  0  0  0  0  0  0  0  0  0  0
   12.0048   -2.7210   26.2165 C   0  0  0  0  0  0  0  0  0  0  0  0
   11.9891   -1.4328   25.4483 C   0  0  0  0  0  0  0  0  0  0  0  0
   10.8401   -1.1169   24.5373 C   0  0  0  0  0  0  0  0  0  0  0  0
   10.8244    0.1714   23.7690 C   0  0  0  0  0  0  0  0  0  0  0  0
   11.9576    1.1437   23.9118 O   0  0  0  0  0  0  0  0  0  0  0  0
    6.6285   -5.0634   24.2029 C   0  0  0  0  0  0  0  0  0  0  0  0
    7.2084   -6.3276   23.6412 C   0  0  0  0  0  0  0  0  0  0  0  0
    6.6869   -7.6586   24.0956 N   0  0  0  0  0  0  0  0  0  0  0  0
    5.5854   -7.7253   25.1117 C   0  0  0  0  0  0  0  0  0  0  0  0
    5.0055   -6.4611   25.6733 C   0  0  0  0  0  0  0  0  0  0  0  0
    3.9040   -6.5278   26.6894 C   0  0  0  0  0  0  0  0  0  0  0  0
    3.3242   -5.2635   27.2509 C   0  0  0  0  0  0  0  0  0  0  0  0
    3.8457   -3.9326   26.7965 C   0  0  0  0  0  0  0  0  0  0  0  0
    4.9472   -3.8658   25.7805 C   0  0  0  0  0  0  0  0  0  0  0  0
    5.5271   -5.1301   25.2189 C   0  0  0  0  0  0  0  0  0  0  0  0
    9.6597    1.7756   22.0897 C   0  0  0  0  0  0  0  0  0  0  0  0
    9.5123    4.2171   22.9656 N   0  0  0  0  0  0  0  0  0  0  0  0
    8.8407    2.9321   22.5814 C   0  0  0  0  0  0  0  0  0  0  0  0
    7.3500    2.8035   22.6889 O   0  0  0  0  0  0  0  0  0  0  0  0
   10.4906    4.3015   22.8950 H   0  0  0  0  0  0  0  0  0  0  0  0
    8.6933    5.3736   23.4573 C   0  0  0  0  0  0  0  0  0  0  0  0
   11.1528    8.4334   22.8752 C   0  0  0  0  0  0  0  0  0  0  0  0
   10.5407    9.4645   23.7764 C   0  0  0  0  0  0  0  0  0  0  0  0
    9.3128    9.1320   24.5711 C   0  0  0  0  0  0  0  0  0  0  0  0
    8.6969    7.7684   24.4648 C   0  0  0  0  0  0  0  0  0  0  0  0
    9.3090    6.7372   23.5636 C   0  0  0  0  0  0  0  0  0  0  0  0
   10.5370    7.0698   22.7688 C   0  0  0  0  0  0  0  0  0  0  0  0
   12.2618    9.5605   20.8137 C   0  0  0  0  0  0  0  0  0  0  0  0
   12.3807    8.7658   22.0804 O   0  0  0  0  0  0  0  0  0  0  0  0
 41 42  1  0  0  0
 42 35  1  0  0  0
 35 36  2  0  0  0
 36 37  1  0  0  0
 37 38  2  0  0  0
 38 39  1  0  0  0
 39 34  1  0  0  0
 34 30  1  0  0  0
 30 31  1  0  0  0
 31 32  2  0  0  0
 31 29  1  0  0  0
 29  1  1  0  0  0
  1  2  1  0  0  0
  3  2  1  0  0  0
  3  4  1  0  0  0
  4  5  2  0  0  0
  4  6  1  0  0  0
  6 19  1  0  0  0
 19 20  2  0  0  0
 20 21  1  0  0  0
 21 22  2  0  0  0
 22 23  1  0  0  0
 23 24  2  0  0  0
 24 25  1  0  0  0
 25 26  2  0  0  0
 26 27  1  0  0  0
 27 28  2  0  0  0
  6  7  1  0  0  0
  7  8  1  0  0  0
  8  9  1  0  0  0
  3 10  1  0  0  0
 10 11  2  0  0  0
 11 12  1  0  0  0
 12 13  1  0  0  0
 12 14  2  0  0  0
 14 15  1  0  0  0
 15 16  2  0  0  0
 16 17  1  0  0  0
 17 18  2  0  0  0
 39 40  2  0  0  0
 40 35  1  0  0  0
 17  1  1  0  0  0
  8  3  1  0  0  0
 16 10  1  0  0  0
 28 19  1  0  0  0
 28 23  1  0  0  0
 30 33  1  0  0  0
M  END
> <minimizedAffinity>
-9.12938

> <CNNscore>
0.1520169973

> <CNNaffinity>
6.5047264099

> <CNN_VS>
0.9888289571

> <CNNaffinity_variance>
0.1350702196

$$$$
