


 42 47  0  0  0  0  0  0  0  0999 V2000
   -7.1337   -0.9351  -23.0651 N   0  0  0  0  0  0  0  0  0  0  0  0
   -7.5764    0.4800  -23.2919 C   0  0  0  0  0  0  0  0  0  0  0  0
   -9.0389    0.8082  -23.3497 C   0  0  0  0  0  0  0  0  0  0  0  0
  -10.4586    1.2856  -23.4311 C   0  0  0  0  0  0  0  0  0  0  0  0
  -11.5917    0.8516  -23.3665 O   0  0  0  0  0  0  0  0  0  0  0  0
  -10.4368    2.7668  -23.6665 N   0  0  0  0  0  0  0  0  0  0  0  0
   -9.0037    3.2049  -23.7307 C   0  0  0  0  0  0  0  0  0  0  0  0
   -8.1398    1.9944  -23.5348 C   0  0  0  0  0  0  0  0  0  0  0  0
   -6.6399    1.9738  -23.5258 C   0  0  0  0  0  0  0  0  0  0  0  0
  -10.0588   -0.2788  -23.1808 C   0  0  0  0  0  0  0  0  0  0  0  0
  -11.5213    0.0493  -23.2386 C   0  0  0  0  0  0  0  0  0  0  0  0
  -12.5410   -1.0376  -23.0697 C   0  0  0  0  0  0  0  0  0  0  0  0
  -14.0036   -0.7095  -23.1275 Cl  0  0  0  0  0  0  0  0  0  0  0  0
  -12.0983   -2.4528  -22.8430 C   0  0  0  0  0  0  0  0  0  0  0  0
  -10.6358   -2.7809  -22.7851 C   0  0  0  0  0  0  0  0  0  0  0  0
   -9.6160   -1.6939  -22.9540 C   0  0  0  0  0  0  0  0  0  0  0  0
   -8.1534   -2.0221  -22.8962 C   0  0  0  0  0  0  0  0  0  0  0  0
   -7.7107   -3.4372  -22.6695 O   0  0  0  0  0  0  0  0  0  0  0  0
  -11.6374    3.6541  -23.8123 C   0  0  0  0  0  0  0  0  0  0  0  0
  -12.5443    3.8875  -22.6404 C   0  0  0  0  0  0  0  0  0  0  0  0
  -13.7449    4.7748  -22.7862 N   0  0  0  0  0  0  0  0  0  0  0  0
  -14.0386    5.4287  -24.1037 C   0  0  0  0  0  0  0  0  0  0  0  0
  -13.1318    5.1954  -25.2756 C   0  0  0  0  0  0  0  0  0  0  0  0
  -13.4256    5.8494  -26.5932 C   0  0  0  0  0  0  0  0  0  0  0  0
  -12.5187    5.6160  -27.7650 C   0  0  0  0  0  0  0  0  0  0  0  0
  -11.3181    4.7287  -27.6193 C   0  0  0  0  0  0  0  0  0  0  0  0
  -11.0243    4.0747  -26.3017 C   0  0  0  0  0  0  0  0  0  0  0  0
  -11.9312    4.3081  -25.1298 C   0  0  0  0  0  0  0  0  0  0  0  0
   -5.6711   -1.2632  -23.0073 C   0  0  0  0  0  0  0  0  0  0  0  0
   -5.1949   -0.1417  -20.7127 N   0  0  0  0  0  0  0  0  0  0  0  0
   -4.7616   -0.4791  -22.1085 C   0  0  0  0  0  0  0  0  0  0  0  0
   -3.4186   -0.0324  -22.6056 O   0  0  0  0  0  0  0  0  0  0  0  0
   -6.0763   -0.4349  -20.3864 H   0  0  0  0  0  0  0  0  0  0  0  0
   -4.2853    0.6424  -19.8139 C   0  0  0  0  0  0  0  0  0  0  0  0
   -1.2356    3.0637  -20.5796 C   0  0  0  0  0  0  0  0  0  0  0  0
   -1.8927    4.0734  -21.4732 C   0  0  0  0  0  0  0  0  0  0  0  0
   -3.3474    3.9395  -21.8138 C   0  0  0  0  0  0  0  0  0  0  0  0
   -4.1449    2.7958  -21.2606 C   0  0  0  0  0  0  0  0  0  0  0  0
   -3.4878    1.7861  -20.3670 C   0  0  0  0  0  0  0  0  0  0  0  0
   -2.0331    1.9201  -20.0264 C   0  0  0  0  0  0  0  0  0  0  0  0
    0.6707    4.2620  -19.2834 C   0  0  0  0  0  0  0  0  0  0  0  0
    0.2191    3.1977  -20.2390 O   0  0  0  0  0  0  0  0  0  0  0  0
 41 42  1  0  0  0
 42 35  1  0  0  0
 35 36  2  0  0  0
 36 37  1  0  0  0
 37 38  2  0  0  0
 38 39  1  0  0  0
 39 34  1  0  0  0
 34 30  1  0  0  0
 30 31  1  0  0  0
 31 32  2  0  0  0
 31 29  1  0  0  0
 29  1  1  0  0  0
  1  2  1  0  0  0
  3  2  1  0  0  0
  3  4  1  0  0  0
  4  5  2  0  0  0
  4  6  1  0  0  0
  6 19  1  0  0  0
 19 20  2  0  0  0
 20 21  1  0  0  0
 21 22  2  0  0  0
 22 23  1  0  0  0
 23 24  2  0  0  0
 24 25  1  0  0  0
 25 26  2  0  0  0
 26 27  1  0  0  0
 27 28  2  0  0  0
  6  7  1  0  0  0
  7  8  1  0  0  0
  8  9  1  0  0  0
  3 10  1  0  0  0
 10 11  2  0  0  0
 11 12  1  0  0  0
 12 13  1  0  0  0
 12 14  2  0  0  0
 14 15  1  0  0  0
 15 16  2  0  0  0
 16 17  1  0  0  0
 17 18  2  0  0  0
 39 40  2  0  0  0
 40 35  1  0  0  0
 17  1  1  0  0  0
  8  3  1  0  0  0
 16 10  1  0  0  0
 28 19  1  0  0  0
 28 23  1  0  0  0
 30 33  1  0  0  0
M  END
> <minimizedAffinity>
-8.29456

> <CNNscore>
0.6696684361

> <CNNaffinity>
7.0122995377

> <CNN_VS>
4.6959156990

> <CNNaffinity_variance>
0.1325932443

$$$$



 42 47  0  0  0  0  0  0  0  0999 V2000
   -6.9523   -0.8400  -23.0132 N   0  0  0  0  0  0  0  0  0  0  0  0
   -7.4282    0.5647  -23.2373 C   0  0  0  0  0  0  0  0  0  0  0  0
   -8.8973    0.8530  -23.3304 C   0  0  0  0  0  0  0  0  0  0  0  0
  -10.3271    1.2918  -23.4444 C   0  0  0  0  0  0  0  0  0  0  0  0
  -11.4490    0.8261  -23.4140 O   0  0  0  0  0  0  0  0  0  0  0  0
  -10.3405    2.7756  -23.6642 N   0  0  0  0  0  0  0  0  0  0  0  0
   -8.9189    3.2537  -23.6861 C   0  0  0  0  0  0  0  0  0  0  0  0
   -8.0270    2.0655  -23.4798 C   0  0  0  0  0  0  0  0  0  0  0  0
   -6.5279    2.0862  -23.4314 C   0  0  0  0  0  0  0  0  0  0  0  0
   -9.8905   -0.2635  -23.1994 C   0  0  0  0  0  0  0  0  0  0  0  0
  -11.3596    0.0248  -23.2924 C   0  0  0  0  0  0  0  0  0  0  0  0
  -12.3527   -1.0917  -23.1614 C   0  0  0  0  0  0  0  0  0  0  0  0
  -13.8218   -0.8035  -23.2545 Cl  0  0  0  0  0  0  0  0  0  0  0  0
  -11.8767   -2.4964  -22.9374 C   0  0  0  0  0  0  0  0  0  0  0  0
  -10.4076   -2.7847  -22.8443 C   0  0  0  0  0  0  0  0  0  0  0  0
   -9.4145   -1.6682  -22.9753 C   0  0  0  0  0  0  0  0  0  0  0  0
   -7.9454   -1.9565  -22.8822 C   0  0  0  0  0  0  0  0  0  0  0  0
   -7.4694   -3.3612  -22.6581 O   0  0  0  0  0  0  0  0  0  0  0  0
  -11.5612    3.6309  -23.8326 C   0  0  0  0  0  0  0  0  0  0  0  0
  -12.4998    3.8336  -22.6803 C   0  0  0  0  0  0  0  0  0  0  0  0
  -13.7205    4.6889  -22.8487 N   0  0  0  0  0  0  0  0  0  0  0  0
  -14.0025    5.3416  -24.1695 C   0  0  0  0  0  0  0  0  0  0  0  0
  -13.0638    5.1390  -25.3218 C   0  0  0  0  0  0  0  0  0  0  0  0
  -13.3459    5.7917  -26.6426 C   0  0  0  0  0  0  0  0  0  0  0  0
  -12.4072    5.5890  -27.7949 C   0  0  0  0  0  0  0  0  0  0  0  0
  -11.1865    4.7337  -27.6265 C   0  0  0  0  0  0  0  0  0  0  0  0
  -10.9045    4.0810  -26.3058 C   0  0  0  0  0  0  0  0  0  0  0  0
  -11.8432    4.2836  -25.1534 C   0  0  0  0  0  0  0  0  0  0  0  0
   -5.4831   -1.1283  -22.9202 C   0  0  0  0  0  0  0  0  0  0  0  0
   -3.5943    0.5747  -22.3891 N   0  0  0  0  0  0  0  0  0  0  0  0
   -4.6371   -0.3964  -21.9208 C   0  0  0  0  0  0  0  0  0  0  0  0
   -4.8340   -0.6358  -20.4531 O   0  0  0  0  0  0  0  0  0  0  0  0
   -3.4651    0.7319  -23.3523 H   0  0  0  0  0  0  0  0  0  0  0  0
   -2.7483    1.3066  -21.3897 C   0  0  0  0  0  0  0  0  0  0  0  0
    0.8454    1.0877  -23.0593 C   0  0  0  0  0  0  0  0  0  0  0  0
    1.7215    1.4391  -21.8935 C   0  0  0  0  0  0  0  0  0  0  0  0
    1.1076    1.7463  -20.5598 C   0  0  0  0  0  0  0  0  0  0  0  0
   -0.3823    1.7022  -20.3919 C   0  0  0  0  0  0  0  0  0  0  0  0
   -1.2584    1.3507  -21.5576 C   0  0  0  0  0  0  0  0  0  0  0  0
   -0.6445    1.0435  -22.8914 C   0  0  0  0  0  0  0  0  0  0  0  0
    1.6054   -0.6436  -24.8412 C   0  0  0  0  0  0  0  0  0  0  0  0
    1.4592    0.7804  -24.3930 O   0  0  0  0  0  0  0  0  0  0  0  0
 41 42  1  0  0  0
 42 35  1  0  0  0
 35 36  2  0  0  0
 36 37  1  0  0  0
 37 38  2  0  0  0
 38 39  1  0  0  0
 39 34  1  0  0  0
 34 30  1  0  0  0
 30 31  1  0  0  0
 31 32  2  0  0  0
 31 29  1  0  0  0
 29  1  1  0  0  0
  1  2  1  0  0  0
  3  2  1  0  0  0
  3  4  1  0  0  0
  4  5  2  0  0  0
  4  6  1  0  0  0
  6 19  1  0  0  0
 19 20  2  0  0  0
 20 21  1  0  0  0
 21 22  2  0  0  0
 22 23  1  0  0  0
 23 24  2  0  0  0
 24 25  1  0  0  0
 25 26  2  0  0  0
 26 27  1  0  0  0
 27 28  2  0  0  0
  6  7  1  0  0  0
  7  8  1  0  0  0
  8  9  1  0  0  0
  3 10  1  0  0  0
 10 11  2  0  0  0
 11 12  1  0  0  0
 12 13  1  0  0  0
 12 14  2  0  0  0
 14 15  1  0  0  0
 15 16  2  0  0  0
 16 17  1  0  0  0
 17 18  2  0  0  0
 39 40  2  0  0  0
 40 35  1  0  0  0
 17  1  1  0  0  0
  8  3  1  0  0  0
 16 10  1  0  0  0
 28 19  1  0  0  0
 28 23  1  0  0  0
 30 33  1  0  0  0
M  END
> <minimizedAffinity>
-7.88892

> <CNNscore>
0.6331272125

> <CNNaffinity>
6.6457343102

> <CNN_VS>
4.2075953484

> <CNNaffinity_variance>
0.0988489836

$$$$



 42 47  0  0  0  0  0  0  0  0999 V2000
   -7.6146   -1.4069  -23.6021 N   0  0  0  0  0  0  0  0  0  0  0  0
   -7.9217    0.0507  -23.7791 C   0  0  0  0  0  0  0  0  0  0  0  0
   -9.3368    0.5371  -23.6750 C   0  0  0  0  0  0  0  0  0  0  0  0
  -10.6958    1.1674  -23.5991 C   0  0  0  0  0  0  0  0  0  0  0  0
  -11.8556    0.8589  -23.4094 O   0  0  0  0  0  0  0  0  0  0  0  0
  -10.5377    2.6401  -23.8361 N   0  0  0  0  0  0  0  0  0  0  0  0
   -9.0809    2.9200  -24.0585 C   0  0  0  0  0  0  0  0  0  0  0  0
   -8.3387    1.6202  -23.9589 C   0  0  0  0  0  0  0  0  0  0  0  0
   -6.8584    1.4360  -24.1157 C   0  0  0  0  0  0  0  0  0  0  0  0
  -10.4449   -0.4341  -23.3938 C   0  0  0  0  0  0  0  0  0  0  0  0
  -11.8600    0.0523  -23.2897 C   0  0  0  0  0  0  0  0  0  0  0  0
  -12.9681   -0.9188  -23.0086 C   0  0  0  0  0  0  0  0  0  0  0  0
  -14.3833   -0.4325  -22.9045 Cl  0  0  0  0  0  0  0  0  0  0  0  0
  -12.6610   -2.3764  -22.8317 C   0  0  0  0  0  0  0  0  0  0  0  0
  -11.2459   -2.8628  -22.9358 C   0  0  0  0  0  0  0  0  0  0  0  0
  -10.1379   -1.8916  -23.2169 C   0  0  0  0  0  0  0  0  0  0  0  0
   -8.7227   -2.3780  -23.3210 C   0  0  0  0  0  0  0  0  0  0  0  0
   -8.4157   -3.8355  -23.1440 O   0  0  0  0  0  0  0  0  0  0  0  0
  -11.6424    3.6547  -23.8486 C   0  0  0  0  0  0  0  0  0  0  0  0
  -12.4167    3.9358  -22.5950 C   0  0  0  0  0  0  0  0  0  0  0  0
  -13.5214    4.9504  -22.6075 N   0  0  0  0  0  0  0  0  0  0  0  0
  -13.8517    5.6840  -23.8735 C   0  0  0  0  0  0  0  0  0  0  0  0
  -13.0773    5.4029  -25.1270 C   0  0  0  0  0  0  0  0  0  0  0  0
  -13.4077    6.1365  -26.3931 C   0  0  0  0  0  0  0  0  0  0  0  0
  -12.6333    5.8554  -27.6466 C   0  0  0  0  0  0  0  0  0  0  0  0
  -11.5286    4.8407  -27.6341 C   0  0  0  0  0  0  0  0  0  0  0  0
  -11.1983    4.1072  -26.3681 C   0  0  0  0  0  0  0  0  0  0  0  0
  -11.9727    4.3883  -25.1146 C   0  0  0  0  0  0  0  0  0  0  0  0
   -6.1995   -1.8932  -23.7062 C   0  0  0  0  0  0  0  0  0  0  0  0
   -5.7302   -4.3657  -24.3515 N   0  0  0  0  0  0  0  0  0  0  0  0
   -5.8331   -2.9197  -24.7368 C   0  0  0  0  0  0  0  0  0  0  0  0
   -5.5697   -2.5002  -26.1527 O   0  0  0  0  0  0  0  0  0  0  0  0
   -5.9031   -4.6411  -23.4222 H   0  0  0  0  0  0  0  0  0  0  0  0
   -5.3639   -5.3922  -25.3821 C   0  0  0  0  0  0  0  0  0  0  0  0
   -7.1118   -6.4082  -28.7971 C   0  0  0  0  0  0  0  0  0  0  0  0
   -8.4587   -6.8493  -28.3059 C   0  0  0  0  0  0  0  0  0  0  0  0
   -8.7740   -6.8047  -26.8401 C   0  0  0  0  0  0  0  0  0  0  0  0
   -7.7424   -6.3190  -25.8654 C   0  0  0  0  0  0  0  0  0  0  0  0
   -6.3955   -5.8779  -26.3566 C   0  0  0  0  0  0  0  0  0  0  0  0
   -6.0802   -5.9225  -27.8225 C   0  0  0  0  0  0  0  0  0  0  0  0
   -5.4196   -6.8305  -30.7227 C   0  0  0  0  0  0  0  0  0  0  0  0
   -6.7965   -6.4527  -30.2629 O   0  0  0  0  0  0  0  0  0  0  0  0
 41 42  1  0  0  0
 42 35  1  0  0  0
 35 36  2  0  0  0
 36 37  1  0  0  0
 37 38  2  0  0  0
 38 39  1  0  0  0
 39 34  1  0  0  0
 34 30  1  0  0  0
 30 31  1  0  0  0
 31 32  2  0  0  0
 31 29  1  0  0  0
 29  1  1  0  0  0
  1  2  1  0  0  0
  3  2  1  0  0  0
  3  4  1  0  0  0
  4  5  2  0  0  0
  4  6  1  0  0  0
  6 19  1  0  0  0
 19 20  2  0  0  0
 20 21  1  0  0  0
 21 22  2  0  0  0
 22 23  1  0  0  0
 23 24  2  0  0  0
 24 25  1  0  0  0
 25 26  2  0  0  0
 26 27  1  0  0  0
 27 28  2  0  0  0
  6  7  1  0  0  0
  7  8  1  0  0  0
  8  9  1  0  0  0
  3 10  1  0  0  0
 10 11  2  0  0  0
 11 12  1  0  0  0
 12 13  1  0  0  0
 12 14  2  0  0  0
 14 15  1  0  0  0
 15 16  2  0  0  0
 16 17  1  0  0  0
 17 18  2  0  0  0
 39 40  2  0  0  0
 40 35  1  0  0  0
 17  1  1  0  0  0
  8  3  1  0  0  0
 16 10  1  0  0  0
 28 19  1  0  0  0
 28 23  1  0  0  0
 30 33  1  0  0  0
M  END
> <minimizedAffinity>
-7.71487

> <CNNscore>
0.6019630432

> <CNNaffinity>
6.8799972534

> <CNN_VS>
4.1415042877

> <CNNaffinity_variance>
0.0622808114

$$$$



 42 47  0  0  0  0  0  0  0  0999 V2000
   -7.1959   -1.1918  -25.4921 N   0  0  0  0  0  0  0  0  0  0  0  0
   -7.7153    0.2059  -25.3282 C   0  0  0  0  0  0  0  0  0  0  0  0
   -9.0598    0.4381  -24.7052 C   0  0  0  0  0  0  0  0  0  0  0  0
  -10.3785    0.8238  -24.1033 C   0  0  0  0  0  0  0  0  0  0  0  0
  -11.3615    0.3095  -23.6077 O   0  0  0  0  0  0  0  0  0  0  0  0
  -10.4854    2.3195  -24.1406 N   0  0  0  0  0  0  0  0  0  0  0  0
   -9.2327    2.8583  -24.7654 C   0  0  0  0  0  0  0  0  0  0  0  0
   -8.3516    1.6955  -25.1143 C   0  0  0  0  0  0  0  0  0  0  0  0
   -6.9997    1.7761  -25.7592 C   0  0  0  0  0  0  0  0  0  0  0  0
   -9.8851   -0.7273  -24.2460 C   0  0  0  0  0  0  0  0  0  0  0  0
  -11.2296   -0.4951  -23.6229 C   0  0  0  0  0  0  0  0  0  0  0  0
  -12.0548   -1.6605  -23.1638 C   0  0  0  0  0  0  0  0  0  0  0  0
  -13.3994   -1.4282  -22.5407 Cl  0  0  0  0  0  0  0  0  0  0  0  0
  -11.5354   -3.0581  -23.3277 C   0  0  0  0  0  0  0  0  0  0  0  0
  -10.1909   -3.2903  -23.9507 C   0  0  0  0  0  0  0  0  0  0  0  0
   -9.3657   -2.1249  -24.4098 C   0  0  0  0  0  0  0  0  0  0  0  0
   -8.0211   -2.3572  -25.0329 C   0  0  0  0  0  0  0  0  0  0  0  0
   -7.5017   -3.7548  -25.1968 O   0  0  0  0  0  0  0  0  0  0  0  0
  -11.6419    3.1335  -23.6407 C   0  0  0  0  0  0  0  0  0  0  0  0
  -12.4049    2.6874  -22.4287 C   0  0  0  0  0  0  0  0  0  0  0  0
  -13.5614    3.5014  -21.9289 N   0  0  0  0  0  0  0  0  0  0  0  0
  -13.9549    4.7616  -22.6410 C   0  0  0  0  0  0  0  0  0  0  0  0
  -13.1919    5.2077  -23.8530 C   0  0  0  0  0  0  0  0  0  0  0  0
  -13.5855    6.4679  -24.5651 C   0  0  0  0  0  0  0  0  0  0  0  0
  -12.8225    6.9140  -25.7771 C   0  0  0  0  0  0  0  0  0  0  0  0
  -11.6660    6.1000  -26.2769 C   0  0  0  0  0  0  0  0  0  0  0  0
  -11.2725    4.8398  -25.5648 C   0  0  0  0  0  0  0  0  0  0  0  0
  -12.0354    4.3937  -24.3528 C   0  0  0  0  0  0  0  0  0  0  0  0
   -5.8513   -1.4240  -26.1152 C   0  0  0  0  0  0  0  0  0  0  0  0
   -4.6985   -0.2486  -24.1053 N   0  0  0  0  0  0  0  0  0  0  0  0
   -4.6045   -1.0507  -25.3693 C   0  0  0  0  0  0  0  0  0  0  0  0
   -3.2638   -1.4796  -25.8876 O   0  0  0  0  0  0  0  0  0  0  0  0
   -5.5785    0.0328  -23.7652 H   0  0  0  0  0  0  0  0  0  0  0  0
   -3.4518    0.1247  -23.3595 C   0  0  0  0  0  0  0  0  0  0  0  0
   -4.6374    0.2680  -19.5748 C   0  0  0  0  0  0  0  0  0  0  0  0
   -3.6899    1.2896  -19.0194 C   0  0  0  0  0  0  0  0  0  0  0  0
   -2.6630    1.9229  -19.9106 C   0  0  0  0  0  0  0  0  0  0  0  0
   -2.5836    1.5346  -21.3574 C   0  0  0  0  0  0  0  0  0  0  0  0
   -3.5311    0.5130  -21.9128 C   0  0  0  0  0  0  0  0  0  0  0  0
   -4.5581   -0.1203  -21.0215 C   0  0  0  0  0  0  0  0  0  0  0  0
   -6.3334   -1.6419  -19.0993 C   0  0  0  0  0  0  0  0  0  0  0  0
   -5.6643   -0.3653  -18.6836 O   0  0  0  0  0  0  0  0  0  0  0  0
 41 42  1  0  0  0
 42 35  1  0  0  0
 35 36  2  0  0  0
 36 37  1  0  0  0
 37 38  2  0  0  0
 38 39  1  0  0  0
 39 34  1  0  0  0
 34 30  1  0  0  0
 30 31  1  0  0  0
 31 32  2  0  0  0
 31 29  1  0  0  0
 29  1  1  0  0  0
  1  2  1  0  0  0
  3  2  1  0  0  0
  3  4  1  0  0  0
  4  5  2  0  0  0
  4  6  1  0  0  0
  6 19  1  0  0  0
 19 20  2  0  0  0
 20 21  1  0  0  0
 21 22  2  0  0  0
 22 23  1  0  0  0
 23 24  2  0  0  0
 24 25  1  0  0  0
 25 26  2  0  0  0
 26 27  1  0  0  0
 27 28  2  0  0  0
  6  7  1  0  0  0
  7  8  1  0  0  0
  8  9  1  0  0  0
  3 10  1  0  0  0
 10 11  2  0  0  0
 11 12  1  0  0  0
 12 13  1  0  0  0
 12 14  2  0  0  0
 14 15  1  0  0  0
 15 16  2  0  0  0
 16 17  1  0  0  0
 17 18  2  0  0  0
 39 40  2  0  0  0
 40 35  1  0  0  0
 17  1  1  0  0  0
  8  3  1  0  0  0
 16 10  1  0  0  0
 28 19  1  0  0  0
 28 23  1  0  0  0
 30 33  1  0  0  0
M  END
> <minimizedAffinity>
-8.35192

> <CNNscore>
0.4990607500

> <CNNaffinity>
6.7493638992

> <CNN_VS>
3.3683426380

> <CNNaffinity_variance>
0.1512565315

$$$$



 42 47  0  0  0  0  0  0  0  0999 V2000
   -7.0972   -1.1371  -21.6138 N   0  0  0  0  0  0  0  0  0  0  0  0
   -7.1554    0.2683  -22.1349 C   0  0  0  0  0  0  0  0  0  0  0  0
   -8.4209    0.7885  -22.7495 C   0  0  0  0  0  0  0  0  0  0  0  0
   -9.6102    1.4441  -23.3865 C   0  0  0  0  0  0  0  0  0  0  0  0
  -10.7606    1.1945  -23.6874 O   0  0  0  0  0  0  0  0  0  0  0  0
   -9.2243    2.8458  -23.7559 N   0  0  0  0  0  0  0  0  0  0  0  0
   -7.7966    3.0565  -23.3471 C   0  0  0  0  0  0  0  0  0  0  0  0
   -7.3001    1.7850  -22.7251 C   0  0  0  0  0  0  0  0  0  0  0  0
   -5.9242    1.5511  -22.1753 C   0  0  0  0  0  0  0  0  0  0  0  0
   -9.6284   -0.0967  -22.8429 C   0  0  0  0  0  0  0  0  0  0  0  0
  -10.8939    0.4235  -23.4575 C   0  0  0  0  0  0  0  0  0  0  0  0
  -12.1013   -0.4616  -23.5510 C   0  0  0  0  0  0  0  0  0  0  0  0
  -13.3669    0.0586  -24.1656 Cl  0  0  0  0  0  0  0  0  0  0  0  0
  -12.0431   -1.8670  -23.0298 C   0  0  0  0  0  0  0  0  0  0  0  0
  -10.7775   -2.3872  -22.4152 C   0  0  0  0  0  0  0  0  0  0  0  0
   -9.5702   -1.5020  -22.3218 C   0  0  0  0  0  0  0  0  0  0  0  0
   -8.3046   -2.0222  -21.7072 C   0  0  0  0  0  0  0  0  0  0  0  0
   -8.2464   -3.4276  -21.1860 O   0  0  0  0  0  0  0  0  0  0  0  0
  -10.1107    3.8588  -24.4178 C   0  0  0  0  0  0  0  0  0  0  0  0
  -11.0001    4.7347  -23.5860 C   0  0  0  0  0  0  0  0  0  0  0  0
  -11.8864    5.7478  -24.2479 N   0  0  0  0  0  0  0  0  0  0  0  0
  -11.8833    5.8850  -25.7416 C   0  0  0  0  0  0  0  0  0  0  0  0
  -10.9939    5.0091  -26.5734 C   0  0  0  0  0  0  0  0  0  0  0  0
  -10.9908    5.1464  -28.0671 C   0  0  0  0  0  0  0  0  0  0  0  0
  -10.1013    4.2705  -28.8988 C   0  0  0  0  0  0  0  0  0  0  0  0
   -9.2150    3.2574  -28.2369 C   0  0  0  0  0  0  0  0  0  0  0  0
   -9.2181    3.1202  -26.7432 C   0  0  0  0  0  0  0  0  0  0  0  0
  -10.1075    3.9961  -25.9115 C   0  0  0  0  0  0  0  0  0  0  0  0
   -5.8316   -1.6573  -20.9991 C   0  0  0  0  0  0  0  0  0  0  0  0
   -5.7048   -3.9666  -22.1827 N   0  0  0  0  0  0  0  0  0  0  0  0
   -5.5781   -3.1346  -20.9411 C   0  0  0  0  0  0  0  0  0  0  0  0
   -5.1977   -3.7798  -19.6414 O   0  0  0  0  0  0  0  0  0  0  0  0
   -5.9544   -3.5431  -23.0357 H   0  0  0  0  0  0  0  0  0  0  0  0
   -5.4513   -5.4439  -22.1247 C   0  0  0  0  0  0  0  0  0  0  0  0
   -6.3222   -7.0280  -25.6577 C   0  0  0  0  0  0  0  0  0  0  0  0
   -5.0739   -7.8132  -25.9317 C   0  0  0  0  0  0  0  0  0  0  0  0
   -3.9514   -7.8087  -24.9368 C   0  0  0  0  0  0  0  0  0  0  0  0
   -4.0771   -7.0189  -23.6677 C   0  0  0  0  0  0  0  0  0  0  0  0
   -5.3255   -6.2337  -23.3937 C   0  0  0  0  0  0  0  0  0  0  0  0
   -6.4480   -6.2383  -24.3887 C   0  0  0  0  0  0  0  0  0  0  0  0
   -8.8661   -7.1097  -26.1794 C   0  0  0  0  0  0  0  0  0  0  0  0
   -7.4447   -7.0326  -26.6526 O   0  0  0  0  0  0  0  0  0  0  0  0
 41 42  1  0  0  0
 42 35  1  0  0  0
 35 36  2  0  0  0
 36 37  1  0  0  0
 37 38  2  0  0  0
 38 39  1  0  0  0
 39 34  1  0  0  0
 34 30  1  0  0  0
 30 31  1  0  0  0
 31 32  2  0  0  0
 31 29  1  0  0  0
 29  1  1  0  0  0
  1  2  1  0  0  0
  3  2  1  0  0  0
  3  4  1  0  0  0
  4  5  2  0  0  0
  4  6  1  0  0  0
  6 19  1  0  0  0
 19 20  2  0  0  0
 20 21  1  0  0  0
 21 22  2  0  0  0
 22 23  1  0  0  0
 23 24  2  0  0  0
 24 25  1  0  0  0
 25 26  2  0  0  0
 26 27  1  0  0  0
 27 28  2  0  0  0
  6  7  1  0  0  0
  7  8  1  0  0  0
  8  9  1  0  0  0
  3 10  1  0  0  0
 10 11  2  0  0  0
 11 12  1  0  0  0
 12 13  1  0  0  0
 12 14  2  0  0  0
 14 15  1  0  0  0
 15 16  2  0  0  0
 16 17  1  0  0  0
 17 18  2  0  0  0
 39 40  2  0  0  0
 40 35  1  0  0  0
 17  1  1  0  0  0
  8  3  1  0  0  0
 16 10  1  0  0  0
 28 19  1  0  0  0
 28 23  1  0  0  0
 30 33  1  0  0  0
M  END
> <minimizedAffinity>
-8.11946

> <CNNscore>
0.2815755904

> <CNNaffinity>
6.4821462631

> <CNN_VS>
1.8252141476

> <CNNaffinity_variance>
0.0244063139

$$$$



 42 47  0  0  0  0  0  0  0  0999 V2000
   -6.5365   -0.2797  -22.1583 N   0  0  0  0  0  0  0  0  0  0  0  0
   -6.9629    1.0925  -22.5888 C   0  0  0  0  0  0  0  0  0  0  0  0
   -8.3863    1.3443  -22.9894 C   0  0  0  0  0  0  0  0  0  0  0  0
   -9.7675    1.7452  -23.4156 C   0  0  0  0  0  0  0  0  0  0  0  0
  -10.8726    1.2625  -23.5642 O   0  0  0  0  0  0  0  0  0  0  0  0
   -9.7413    3.2051  -23.7588 N   0  0  0  0  0  0  0  0  0  0  0  0
   -8.3439    3.7066  -23.5448 C   0  0  0  0  0  0  0  0  0  0  0  0
   -7.5065    2.5565  -23.0692 C   0  0  0  0  0  0  0  0  0  0  0  0
   -6.0457    2.6095  -22.7327 C   0  0  0  0  0  0  0  0  0  0  0  0
   -9.3833    0.2239  -22.9595 C   0  0  0  0  0  0  0  0  0  0  0  0
  -10.8067    0.4757  -23.3601 C   0  0  0  0  0  0  0  0  0  0  0  0
  -11.8036   -0.6446  -23.3302 C   0  0  0  0  0  0  0  0  0  0  0  0
  -13.2271   -0.3929  -23.7308 Cl  0  0  0  0  0  0  0  0  0  0  0  0
  -11.3771   -2.0168  -22.8997 C   0  0  0  0  0  0  0  0  0  0  0  0
   -9.9537   -2.2686  -22.4992 C   0  0  0  0  0  0  0  0  0  0  0  0
   -8.9568   -1.1483  -22.5290 C   0  0  0  0  0  0  0  0  0  0  0  0
   -7.5334   -1.4000  -22.1284 C   0  0  0  0  0  0  0  0  0  0  0  0
   -7.1069   -2.7722  -21.6980 O   0  0  0  0  0  0  0  0  0  0  0  0
  -10.9077    4.0204  -24.2329 C   0  0  0  0  0  0  0  0  0  0  0  0
  -12.3075    3.5396  -23.9890 C   0  0  0  0  0  0  0  0  0  0  0  0
  -13.4739    4.3549  -24.4631 N   0  0  0  0  0  0  0  0  0  0  0  0
  -13.2405    5.6511  -25.1810 C   0  0  0  0  0  0  0  0  0  0  0  0
  -11.8408    6.1319  -25.4248 C   0  0  0  0  0  0  0  0  0  0  0  0
  -11.6074    7.4282  -26.1428 C   0  0  0  0  0  0  0  0  0  0  0  0
  -10.2076    7.9090  -26.3866 C   0  0  0  0  0  0  0  0  0  0  0  0
   -9.0412    7.0937  -25.9125 C   0  0  0  0  0  0  0  0  0  0  0  0
   -9.2746    5.7975  -25.1946 C   0  0  0  0  0  0  0  0  0  0  0  0
  -10.6744    5.3166  -24.9508 C   0  0  0  0  0  0  0  0  0  0  0  0
   -5.1130   -0.5315  -21.7577 C   0  0  0  0  0  0  0  0  0  0  0  0
   -3.2107    1.1008  -21.0744 N   0  0  0  0  0  0  0  0  0  0  0  0
   -4.4576    0.3419  -20.7292 C   0  0  0  0  0  0  0  0  0  0  0  0
   -5.0493    0.4563  -19.3555 O   0  0  0  0  0  0  0  0  0  0  0  0
   -2.8224    1.0257  -21.9759 H   0  0  0  0  0  0  0  0  0  0  0  0
   -2.5553    1.9741  -20.0459 C   0  0  0  0  0  0  0  0  0  0  0  0
    0.6669    4.2755  -20.3122 C   0  0  0  0  0  0  0  0  0  0  0  0
    1.7279    3.2483  -20.5754 C   0  0  0  0  0  0  0  0  0  0  0  0
    1.3611    1.7965  -20.6622 C   0  0  0  0  0  0  0  0  0  0  0  0
   -0.0667    1.3717  -20.4856 C   0  0  0  0  0  0  0  0  0  0  0  0
   -1.1276    2.3988  -20.2224 C   0  0  0  0  0  0  0  0  0  0  0  0
   -0.7608    3.8508  -20.1357 C   0  0  0  0  0  0  0  0  0  0  0  0
    1.1452    6.3940  -18.8864 C   0  0  0  0  0  0  0  0  0  0  0  0
    1.0336    5.7273  -20.2255 O   0  0  0  0  0  0  0  0  0  0  0  0
 41 42  1  0  0  0
 42 35  1  0  0  0
 35 36  2  0  0  0
 36 37  1  0  0  0
 37 38  2  0  0  0
 38 39  1  0  0  0
 39 34  1  0  0  0
 34 30  1  0  0  0
 30 31  1  0  0  0
 31 32  2  0  0  0
 31 29  1  0  0  0
 29  1  1  0  0  0
  1  2  1  0  0  0
  3  2  1  0  0  0
  3  4  1  0  0  0
  4  5  2  0  0  0
  4  6  1  0  0  0
  6 19  1  0  0  0
 19 20  2  0  0  0
 20 21  1  0  0  0
 21 22  2  0  0  0
 22 23  1  0  0  0
 23 24  2  0  0  0
 24 25  1  0  0  0
 25 26  2  0  0  0
 26 27  1  0  0  0
 27 28  2  0  0  0
  6  7  1  0  0  0
  7  8  1  0  0  0
  8  9  1  0  0  0
  3 10  1  0  0  0
 10 11  2  0  0  0
 11 12  1  0  0  0
 12 13  1  0  0  0
 12 14  2  0  0  0
 14 15  1  0  0  0
 15 16  2  0  0  0
 16 17  1  0  0  0
 17 18  2  0  0  0
 39 40  2  0  0  0
 40 35  1  0  0  0
 17  1  1  0  0  0
  8  3  1  0  0  0
 16 10  1  0  0  0
 28 19  1  0  0  0
 28 23  1  0  0  0
 30 33  1  0  0  0
M  END
> <minimizedAffinity>
-8.22431

> <CNNscore>
0.1849211007

> <CNNaffinity>
6.2790946960

> <CNN_VS>
1.1611371040

> <CNNaffinity_variance>
0.1184654608

$$$$



 42 47  0  0  0  0  0  0  0  0999 V2000
   -7.4352   -4.1743  -22.7719 N   0  0  0  0  0  0  0  0  0  0  0  0
   -8.3273   -3.1651  -23.4319 C   0  0  0  0  0  0  0  0  0  0  0  0
   -8.0761   -1.6995  -23.2347 C   0  0  0  0  0  0  0  0  0  0  0  0
   -7.9491   -0.2085  -23.1302 C   0  0  0  0  0  0  0  0  0  0  0  0
   -7.2481    0.6311  -22.6011 O   0  0  0  0  0  0  0  0  0  0  0  0
   -9.0463    0.4085  -23.9460 N   0  0  0  0  0  0  0  0  0  0  0  0
   -9.8514   -0.7011  -24.5547 C   0  0  0  0  0  0  0  0  0  0  0  0
   -9.2518   -2.0039  -24.1151 C   0  0  0  0  0  0  0  0  0  0  0  0
   -9.7418   -3.3711  -24.4901 C   0  0  0  0  0  0  0  0  0  0  0  0
   -6.9328   -1.2431  -22.3776 C   0  0  0  0  0  0  0  0  0  0  0  0
   -6.6815    0.2225  -22.1804 C   0  0  0  0  0  0  0  0  0  0  0  0
   -5.5383    0.6788  -21.3233 C   0  0  0  0  0  0  0  0  0  0  0  0
   -5.2870    2.1444  -21.1261 Cl  0  0  0  0  0  0  0  0  0  0  0  0
   -4.6462   -0.3305  -20.6634 C   0  0  0  0  0  0  0  0  0  0  0  0
   -4.8974   -1.7961  -20.8605 C   0  0  0  0  0  0  0  0  0  0  0  0
   -6.0407   -2.2524  -21.7176 C   0  0  0  0  0  0  0  0  0  0  0  0
   -6.2920   -3.7181  -21.9148 C   0  0  0  0  0  0  0  0  0  0  0  0
   -5.3999   -4.7273  -21.2548 O   0  0  0  0  0  0  0  0  0  0  0  0
   -9.2947    1.8773  -24.1221 C   0  0  0  0  0  0  0  0  0  0  0  0
   -8.1734    2.7832  -24.5369 C   0  0  0  0  0  0  0  0  0  0  0  0
   -8.4218    4.2519  -24.7130 N   0  0  0  0  0  0  0  0  0  0  0  0
   -9.7915    4.8148  -24.4744 C   0  0  0  0  0  0  0  0  0  0  0  0
  -10.9129    3.9089  -24.0597 C   0  0  0  0  0  0  0  0  0  0  0  0
  -12.2827    4.4718  -23.8210 C   0  0  0  0  0  0  0  0  0  0  0  0
  -13.4039    3.5658  -23.4063 C   0  0  0  0  0  0  0  0  0  0  0  0
  -13.1555    2.0970  -23.2302 C   0  0  0  0  0  0  0  0  0  0  0  0
  -11.7858    1.5342  -23.4688 C   0  0  0  0  0  0  0  0  0  0  0  0
  -10.6644    2.4401  -23.8835 C   0  0  0  0  0  0  0  0  0  0  0  0
   -7.6865   -5.6400  -22.9691 C   0  0  0  0  0  0  0  0  0  0  0  0
   -5.5147   -6.9164  -23.6047 N   0  0  0  0  0  0  0  0  0  0  0  0
   -6.8789   -6.4113  -23.9705 C   0  0  0  0  0  0  0  0  0  0  0  0
   -7.4355   -6.6774  -25.3378 O   0  0  0  0  0  0  0  0  0  0  0  0
   -5.1494   -6.7418  -22.7074 H   0  0  0  0  0  0  0  0  0  0  0  0
   -4.7071   -7.6877  -24.6062 C   0  0  0  0  0  0  0  0  0  0  0  0
   -0.9953   -7.0582  -23.3509 C   0  0  0  0  0  0  0  0  0  0  0  0
   -0.2760   -8.1975  -24.0102 C   0  0  0  0  0  0  0  0  0  0  0  0
   -1.0337   -9.1668  -24.8682 C   0  0  0  0  0  0  0  0  0  0  0  0
   -2.5108   -8.9969  -25.0669 C   0  0  0  0  0  0  0  0  0  0  0  0
   -3.2301   -7.8577  -24.4075 C   0  0  0  0  0  0  0  0  0  0  0  0
   -2.4723   -6.8883  -23.5495 C   0  0  0  0  0  0  0  0  0  0  0  0
    1.1494   -5.6692  -22.8808 C   0  0  0  0  0  0  0  0  0  0  0  0
   -0.2375   -6.0889  -22.4929 O   0  0  0  0  0  0  0  0  0  0  0  0
 41 42  1  0  0  0
 42 35  1  0  0  0
 35 36  2  0  0  0
 36 37  1  0  0  0
 37 38  2  0  0  0
 38 39  1  0  0  0
 39 34  1  0  0  0
 34 30  1  0  0  0
 30 31  1  0  0  0
 31 32  2  0  0  0
 31 29  1  0  0  0
 29  1  1  0  0  0
  1  2  1  0  0  0
  3  2  1  0  0  0
  3  4  1  0  0  0
  4  5  2  0  0  0
  4  6  1  0  0  0
  6 19  1  0  0  0
 19 20  2  0  0  0
 20 21  1  0  0  0
 21 22  2  0  0  0
 22 23  1  0  0  0
 23 24  2  0  0  0
 24 25  1  0  0  0
 25 26  2  0  0  0
 26 27  1  0  0  0
 27 28  2  0  0  0
  6  7  1  0  0  0
  7  8  1  0  0  0
  8  9  1  0  0  0
  3 10  1  0  0  0
 10 11  2  0  0  0
 11 12  1  0  0  0
 12 13  1  0  0  0
 12 14  2  0  0  0
 14 15  1  0  0  0
 15 16  2  0  0  0
 16 17  1  0  0  0
 17 18  2  0  0  0
 39 40  2  0  0  0
 40 35  1  0  0  0
 17  1  1  0  0  0
  8  3  1  0  0  0
 16 10  1  0  0  0
 28 19  1  0  0  0
 28 23  1  0  0  0
 30 33  1  0  0  0
M  END
> <minimizedAffinity>
-7.90746

> <CNNscore>
0.1617636979

> <CNNaffinity>
6.4300131798

> <CNN_VS>
1.0401426554

> <CNNaffinity_variance>
0.1558483541

$$$$



 42 47  0  0  0  0  0  0  0  0999 V2000
  -11.9777    1.7467  -23.4377 N   0  0  0  0  0  0  0  0  0  0  0  0
  -11.9148    0.2480  -23.4480 C   0  0  0  0  0  0  0  0  0  0  0  0
  -10.6055   -0.4462  -23.6798 C   0  0  0  0  0  0  0  0  0  0  0  0
   -9.3748   -1.2756  -23.8975 C   0  0  0  0  0  0  0  0  0  0  0  0
   -8.1860   -1.1395  -24.1084 O   0  0  0  0  0  0  0  0  0  0  0  0
   -9.7711   -2.7206  -23.8265 N   0  0  0  0  0  0  0  0  0  0  0  0
  -11.2467   -2.7842  -23.5648 C   0  0  0  0  0  0  0  0  0  0  0  0
  -11.7624   -1.3786  -23.4741 C   0  0  0  0  0  0  0  0  0  0  0  0
  -13.1852   -0.9760  -23.2220 C   0  0  0  0  0  0  0  0  0  0  0  0
   -9.3590    0.3583  -23.9013 C   0  0  0  0  0  0  0  0  0  0  0  0
   -8.0497   -0.3359  -24.1331 C   0  0  0  0  0  0  0  0  0  0  0  0
   -6.8032    0.4685  -24.3545 C   0  0  0  0  0  0  0  0  0  0  0  0
   -5.4938   -0.2257  -24.5863 Cl  0  0  0  0  0  0  0  0  0  0  0  0
   -6.8660    1.9672  -24.3442 C   0  0  0  0  0  0  0  0  0  0  0  0
   -8.1753    2.6614  -24.1124 C   0  0  0  0  0  0  0  0  0  0  0  0
   -9.4218    1.8569  -23.8909 C   0  0  0  0  0  0  0  0  0  0  0  0
  -10.7312    2.5511  -23.6591 C   0  0  0  0  0  0  0  0  0  0  0  0
  -10.7940    4.0498  -23.6488 O   0  0  0  0  0  0  0  0  0  0  0  0
   -8.8529   -3.8956  -23.9887 C   0  0  0  0  0  0  0  0  0  0  0  0
   -7.9589   -4.3105  -22.8579 C   0  0  0  0  0  0  0  0  0  0  0  0
   -7.0407   -5.4855  -23.0200 N   0  0  0  0  0  0  0  0  0  0  0  0
   -7.0165   -6.2455  -24.3130 C   0  0  0  0  0  0  0  0  0  0  0  0
   -7.9104   -5.8306  -25.4438 C   0  0  0  0  0  0  0  0  0  0  0  0
   -7.8862   -6.5906  -26.7368 C   0  0  0  0  0  0  0  0  0  0  0  0
   -8.7802   -6.1756  -27.8675 C   0  0  0  0  0  0  0  0  0  0  0  0
   -9.6983   -5.0006  -27.7054 C   0  0  0  0  0  0  0  0  0  0  0  0
   -9.7226   -4.2406  -26.4124 C   0  0  0  0  0  0  0  0  0  0  0  0
   -8.8286   -4.6556  -25.2816 C   0  0  0  0  0  0  0  0  0  0  0  0
  -13.2871    2.4409  -23.2059 C   0  0  0  0  0  0  0  0  0  0  0  0
  -13.2283    4.2249  -25.0936 N   0  0  0  0  0  0  0  0  0  0  0  0
  -13.4755    3.8579  -23.6604 C   0  0  0  0  0  0  0  0  0  0  0  0
  -13.9111    4.9078  -22.6816 O   0  0  0  0  0  0  0  0  0  0  0  0
  -12.9424    3.5358  -25.7360 H   0  0  0  0  0  0  0  0  0  0  0  0
  -13.4167    5.6419  -25.5481 C   0  0  0  0  0  0  0  0  0  0  0  0
  -12.5461    5.4282  -29.4142 C   0  0  0  0  0  0  0  0  0  0  0  0
  -13.2665    6.6368  -29.9342 C   0  0  0  0  0  0  0  0  0  0  0  0
  -14.0369    7.5137  -28.9922 C   0  0  0  0  0  0  0  0  0  0  0  0
  -14.0870    7.1821  -27.5302 C   0  0  0  0  0  0  0  0  0  0  0  0
  -13.3666    5.9736  -27.0101 C   0  0  0  0  0  0  0  0  0  0  0  0
  -12.5961    5.0966  -27.9522 C   0  0  0  0  0  0  0  0  0  0  0  0
  -12.3054    3.1965  -30.7226 C   0  0  0  0  0  0  0  0  0  0  0  0
  -11.7756    4.5513  -30.3561 O   0  0  0  0  0  0  0  0  0  0  0  0
 41 42  1  0  0  0
 42 35  1  0  0  0
 35 36  2  0  0  0
 36 37  1  0  0  0
 37 38  2  0  0  0
 38 39  1  0  0  0
 39 34  1  0  0  0
 34 30  1  0  0  0
 30 31  1  0  0  0
 31 32  2  0  0  0
 31 29  1  0  0  0
 29  1  1  0  0  0
  1  2  1  0  0  0
  3  2  1  0  0  0
  3  4  1  0  0  0
  4  5  2  0  0  0
  4  6  1  0  0  0
  6 19  1  0  0  0
 19 20  2  0  0  0
 20 21  1  0  0  0
 21 22  2  0  0  0
 22 23  1  0  0  0
 23 24  2  0  0  0
 24 25  1  0  0  0
 25 26  2  0  0  0
 26 27  1  0  0  0
 27 28  2  0  0  0
  6  7  1  0  0  0
  7  8  1  0  0  0
  8  9  1  0  0  0
  3 10  1  0  0  0
 10 11  2  0  0  0
 11 12  1  0  0  0
 12 13  1  0  0  0
 12 14  2  0  0  0
 14 15  1  0  0  0
 15 16  2  0  0  0
 16 17  1  0  0  0
 17 18  2  0  0  0
 39 40  2  0  0  0
 40 35  1  0  0  0
 17  1  1  0  0  0
  8  3  1  0  0  0
 16 10  1  0  0  0
 28 19  1  0  0  0
 28 23  1  0  0  0
 30 33  1  0  0  0
M  END
> <minimizedAffinity>
-8.41536

> <CNNscore>
0.1442038417

> <CNNaffinity>
6.3501644135

> <CNN_VS>
0.9157180786

> <CNNaffinity_variance>
0.2239429057

$$$$



 42 47  0  0  0  0  0  0  0  0999 V2000
  -10.0252   -0.5903  -22.9843 N   0  0  0  0  0  0  0  0  0  0  0  0
  -11.2326    0.2279  -23.3346 C   0  0  0  0  0  0  0  0  0  0  0  0
  -11.0810    1.6806  -23.6758 C   0  0  0  0  0  0  0  0  0  0  0  0
  -11.0851    3.1365  -24.0369 C   0  0  0  0  0  0  0  0  0  0  0  0
  -10.3121    4.0642  -24.1721 O   0  0  0  0  0  0  0  0  0  0  0  0
  -12.5030    3.5423  -24.3107 N   0  0  0  0  0  0  0  0  0  0  0  0
  -13.3753    2.3371  -24.1189 C   0  0  0  0  0  0  0  0  0  0  0  0
  -12.4964    1.1866  -23.7265 C   0  0  0  0  0  0  0  0  0  0  0  0
  -12.9529   -0.2124  -23.4358 C   0  0  0  0  0  0  0  0  0  0  0  0
   -9.7219    2.3153  -23.6669 C   0  0  0  0  0  0  0  0  0  0  0  0
   -9.5702    3.7680  -24.0081 C   0  0  0  0  0  0  0  0  0  0  0  0
   -8.2111    4.4026  -23.9991 C   0  0  0  0  0  0  0  0  0  0  0  0
   -8.0595    5.8555  -24.3404 Cl  0  0  0  0  0  0  0  0  0  0  0  0
   -7.0037    3.5845  -23.6489 C   0  0  0  0  0  0  0  0  0  0  0  0
   -7.1553    2.1317  -23.3077 C   0  0  0  0  0  0  0  0  0  0  0  0
   -8.5144    1.4972  -23.3166 C   0  0  0  0  0  0  0  0  0  0  0  0
   -8.6661    0.0443  -22.9754 C   0  0  0  0  0  0  0  0  0  0  0  0
   -7.4586   -0.7738  -22.6251 O   0  0  0  0  0  0  0  0  0  0  0  0
  -12.9671    4.9125  -24.7068 C   0  0  0  0  0  0  0  0  0  0  0  0
  -13.5999    5.8137  -23.6882 C   0  0  0  0  0  0  0  0  0  0  0  0
  -14.0640    7.1840  -24.0843 N   0  0  0  0  0  0  0  0  0  0  0  0
  -13.8954    7.6531  -25.4990 C   0  0  0  0  0  0  0  0  0  0  0  0
  -13.2626    6.7519  -26.5176 C   0  0  0  0  0  0  0  0  0  0  0  0
  -13.0940    7.2211  -27.9324 C   0  0  0  0  0  0  0  0  0  0  0  0
  -12.4613    6.3199  -28.9510 C   0  0  0  0  0  0  0  0  0  0  0  0
  -11.9971    4.9496  -28.5549 C   0  0  0  0  0  0  0  0  0  0  0  0
  -12.1658    4.4805  -27.1402 C   0  0  0  0  0  0  0  0  0  0  0  0
  -12.7985    5.3817  -26.1215 C   0  0  0  0  0  0  0  0  0  0  0  0
  -10.1769   -2.0431  -22.6431 C   0  0  0  0  0  0  0  0  0  0  0  0
   -8.9015   -4.1322  -23.5142 N   0  0  0  0  0  0  0  0  0  0  0  0
   -9.9622   -3.0876  -23.6980 C   0  0  0  0  0  0  0  0  0  0  0  0
  -10.8083   -3.0876  -24.9366 O   0  0  0  0  0  0  0  0  0  0  0  0
   -8.3462   -4.1322  -22.7013 H   0  0  0  0  0  0  0  0  0  0  0  0
   -8.6868   -5.1768  -24.5691 C   0  0  0  0  0  0  0  0  0  0  0  0
   -5.6596   -7.4318  -25.7941 C   0  0  0  0  0  0  0  0  0  0  0  0
   -4.9793   -7.7258  -24.4900 C   0  0  0  0  0  0  0  0  0  0  0  0
   -5.5347   -7.1701  -23.2122 C   0  0  0  0  0  0  0  0  0  0  0  0
   -6.7706   -6.3204  -23.2386 C   0  0  0  0  0  0  0  0  0  0  0  0
   -7.4510   -6.0264  -24.5427 C   0  0  0  0  0  0  0  0  0  0  0  0
   -6.8954   -6.5822  -25.8205 C   0  0  0  0  0  0  0  0  0  0  0  0
   -5.5397   -7.4179  -28.3894 C   0  0  0  0  0  0  0  0  0  0  0  0
   -5.1041   -7.9875  -27.0718 O   0  0  0  0  0  0  0  0  0  0  0  0
 41 42  1  0  0  0
 42 35  1  0  0  0
 35 36  2  0  0  0
 36 37  1  0  0  0
 37 38  2  0  0  0
 38 39  1  0  0  0
 39 34  1  0  0  0
 34 30  1  0  0  0
 30 31  1  0  0  0
 31 32  2  0  0  0
 31 29  1  0  0  0
 29  1  1  0  0  0
  1  2  1  0  0  0
  3  2  1  0  0  0
  3  4  1  0  0  0
  4  5  2  0  0  0
  4  6  1  0  0  0
  6 19  1  0  0  0
 19 20  2  0  0  0
 20 21  1  0  0  0
 21 22  2  0  0  0
 22 23  1  0  0  0
 23 24  2  0  0  0
 24 25  1  0  0  0
 25 26  2  0  0  0
 26 27  1  0  0  0
 27 28  2  0  0  0
  6  7  1  0  0  0
  7  8  1  0  0  0
  8  9  1  0  0  0
  3 10  1  0  0  0
 10 11  2  0  0  0
 11 12  1  0  0  0
 12 13  1  0  0  0
 12 14  2  0  0  0
 14 15  1  0  0  0
 15 16  2  0  0  0
 16 17  1  0  0  0
 17 18  2  0  0  0
 39 40  2  0  0  0
 40 35  1  0  0  0
 17  1  1  0  0  0
  8  3  1  0  0  0
 16 10  1  0  0  0
 28 19  1  0  0  0
 28 23  1  0  0  0
 30 33  1  0  0  0
M  END
> <minimizedAffinity>
-8.64009

> <CNNscore>
0.1394708306

> <CNNaffinity>
6.0579705238

> <CNN_VS>
0.8449102044

> <CNNaffinity_variance>
0.2771285176

$$$$
