


 35 40  0  0  0  0  0  0  0  0999 V2000
   -5.7062   -5.6578  -22.9375 C   0  0  0  0  0  0  0  0  0  0  0  0
   -6.2750   -4.3283  -22.5389 C   0  0  0  0  0  0  0  0  0  0  0  0
   -5.4842   -3.6861  -21.4379 C   0  0  0  0  0  0  0  0  0  0  0  0
   -6.1271   -2.3706  -21.1119 N   0  0  0  0  0  0  0  0  0  0  0  0
   -7.3153   -2.1999  -22.0115 C   0  0  0  0  0  0  0  0  0  0  0  0
   -8.2482   -1.0254  -22.0265 O   0  0  0  0  0  0  0  0  0  0  0  0
   -7.4067   -3.4098  -22.8934 C   0  0  0  0  0  0  0  0  0  0  0  0
   -8.4836   -2.3945  -23.1370 C   0  0  0  0  0  0  0  0  0  0  0  0
   -9.5240   -2.6424  -24.1888 N   0  0  0  0  0  0  0  0  0  0  0  0
   -9.4874   -3.9055  -24.9970 C   0  0  0  0  0  0  0  0  0  0  0  0
  -10.5278   -4.1533  -26.0487 O   0  0  0  0  0  0  0  0  0  0  0  0
   -8.4104   -4.9208  -24.7534 C   0  0  0  0  0  0  0  0  0  0  0  0
   -8.3738   -6.1839  -25.5616 C   0  0  0  0  0  0  0  0  0  0  0  0
   -7.2968   -7.1991  -25.3180 C   0  0  0  0  0  0  0  0  0  0  0  0
   -6.2565   -6.9513  -24.2662 C   0  0  0  0  0  0  0  0  0  0  0  0
   -5.1795   -7.9666  -24.0226 F   0  0  0  0  0  0  0  0  0  0  0  0
   -6.2931   -5.6882  -23.4580 C   0  0  0  0  0  0  0  0  0  0  0  0
   -7.3700   -4.6729  -23.7016 C   0  0  0  0  0  0  0  0  0  0  0  0
   -5.6634   -1.3969  -20.0695 C   0  0  0  0  0  0  0  0  0  0  0  0
   -6.1506   -1.5224  -18.6564 C   0  0  0  0  0  0  0  0  0  0  0  0
   -5.6869   -0.5486  -17.6139 N   0  0  0  0  0  0  0  0  0  0  0  0
   -4.7359    0.5506  -17.9846 C   0  0  0  0  0  0  0  0  0  0  0  0
   -4.2487    0.6760  -19.3977 C   0  0  0  0  0  0  0  0  0  0  0  0
   -3.2976    1.7753  -19.7683 C   0  0  0  0  0  0  0  0  0  0  0  0
   -2.8105    1.9007  -21.1815 C   0  0  0  0  0  0  0  0  0  0  0  0
   -3.2742    0.9269  -22.2239 C   0  0  0  0  0  0  0  0  0  0  0  0
   -4.2252   -0.1722  -21.8532 C   0  0  0  0  0  0  0  0  0  0  0  0
   -4.7124   -0.2977  -20.4402 C   0  0  0  0  0  0  0  0  0  0  0  0
  -10.6010   -1.6270  -24.4324 C   0  0  0  0  0  0  0  0  0  0  0  0
  -11.8551   -1.6519  -23.6098 C   0  0  0  0  0  0  0  0  0  0  0  0
  -13.0272   -0.7282  -23.7612 C   0  0  0  0  0  0  0  0  0  0  0  0
  -14.0538   -1.1103  -22.7364 C   0  0  0  0  0  0  0  0  0  0  0  0
  -13.5161   -2.2701  -21.9516 N   0  0  0  0  0  0  0  0  0  0  0  0
  -14.2146   -2.9719  -20.8249 C   0  0  0  0  0  0  0  0  0  0  0  0
  -12.1572   -2.6048  -22.4915 N   0  0  0  0  0  0  0  0  0  0  0  0
  2  1  1  0  0  0
  2  3  1  0  0  0
  3  4  1  0  0  0
  4 19  1  0  0  0
 19 20  2  0  0  0
 20 21  1  0  0  0
 21 22  2  0  0  0
 22 23  1  0  0  0
 23 24  2  0  0  0
 24 25  1  0  0  0
 25 26  2  0  0  0
 26 27  1  0  0  0
 27 28  2  0  0  0
  4  5  1  0  0  0
  5  6  2  0  0  0
  5  7  1  0  0  0
  7  8  1  0  0  0
  8  9  1  0  0  0
  9 29  1  0  0  0
 29 30  1  0  0  0
 30 31  1  0  0  0
 31 32  2  0  0  0
 32 33  1  0  0  0
 33 34  1  0  0  0
 33 35  1  0  0  0
  9 10  1  0  0  0
 10 11  2  0  0  0
 10 12  1  0  0  0
 12 13  2  0  0  0
 13 14  1  0  0  0
 14 15  2  0  0  0
 15 16  1  0  0  0
 15 17  1  0  0  0
 17 18  2  0  0  0
  7  2  1  0  0  0
 35 30  2  0  0  0
 18 12  1  0  0  0
 28 19  1  0  0  0
 18  7  1  0  0  0
 28 23  1  0  0  0
M  END
> <minimizedAffinity>
-8.54303

> <CNNscore>
0.6414536238

> <CNNaffinity>
6.7633666992

> <CNN_VS>
4.3383860588

> <CNNaffinity_variance>
0.2098372728

$$$$



 35 40  0  0  0  0  0  0  0  0999 V2000
   -9.5407   -2.5108  -23.6771 C   0  0  0  0  0  0  0  0  0  0  0  0
   -8.2905   -2.7275  -22.8769 C   0  0  0  0  0  0  0  0  0  0  0  0
   -8.0245   -1.5931  -21.9321 C   0  0  0  0  0  0  0  0  0  0  0  0
   -6.7623   -1.9007  -21.1824 N   0  0  0  0  0  0  0  0  0  0  0  0
   -6.2482   -3.2251  -21.6637 C   0  0  0  0  0  0  0  0  0  0  0  0
   -5.0075   -3.9170  -21.1823 O   0  0  0  0  0  0  0  0  0  0  0  0
   -7.1927   -3.7361  -22.7110 C   0  0  0  0  0  0  0  0  0  0  0  0
   -6.0344   -4.6487  -22.4365 C   0  0  0  0  0  0  0  0  0  0  0  0
   -5.9040   -5.9414  -23.1863 N   0  0  0  0  0  0  0  0  0  0  0  0
   -6.9319   -6.3213  -24.2105 C   0  0  0  0  0  0  0  0  0  0  0  0
   -6.8015   -7.6140  -24.9602 O   0  0  0  0  0  0  0  0  0  0  0  0
   -8.0903   -5.4087  -24.4850 C   0  0  0  0  0  0  0  0  0  0  0  0
   -9.1182   -5.7887  -25.5091 C   0  0  0  0  0  0  0  0  0  0  0  0
  -10.2765   -4.8760  -25.7836 C   0  0  0  0  0  0  0  0  0  0  0  0
  -10.4069   -3.5834  -25.0338 C   0  0  0  0  0  0  0  0  0  0  0  0
  -11.5653   -2.6707  -25.3083 F   0  0  0  0  0  0  0  0  0  0  0  0
   -9.3790   -3.2034  -24.0097 C   0  0  0  0  0  0  0  0  0  0  0  0
   -8.2207   -4.1160  -23.7352 C   0  0  0  0  0  0  0  0  0  0  0  0
   -6.1259   -1.0357  -20.1351 C   0  0  0  0  0  0  0  0  0  0  0  0
   -6.6717   -1.0250  -18.7381 C   0  0  0  0  0  0  0  0  0  0  0  0
   -6.0353   -0.1600  -17.6908 N   0  0  0  0  0  0  0  0  0  0  0  0
   -4.8530    0.6942  -18.0407 C   0  0  0  0  0  0  0  0  0  0  0  0
   -4.3071    0.6835  -19.4378 C   0  0  0  0  0  0  0  0  0  0  0  0
   -3.1247    1.5377  -19.7876 C   0  0  0  0  0  0  0  0  0  0  0  0
   -2.5789    1.5269  -21.1848 C   0  0  0  0  0  0  0  0  0  0  0  0
   -3.2154    0.6620  -22.2319 C   0  0  0  0  0  0  0  0  0  0  0  0
   -4.3977   -0.1923  -21.8821 C   0  0  0  0  0  0  0  0  0  0  0  0
   -4.9435   -0.1815  -20.4851 C   0  0  0  0  0  0  0  0  0  0  0  0
   -4.7456   -6.8540  -22.9118 C   0  0  0  0  0  0  0  0  0  0  0  0
   -3.5368   -6.8192  -23.7991 C   0  0  0  0  0  0  0  0  0  0  0  0
   -2.1923   -7.4033  -23.4807 C   0  0  0  0  0  0  0  0  0  0  0  0
   -1.2847   -7.1393  -24.6454 C   0  0  0  0  0  0  0  0  0  0  0  0
   -2.0682   -6.3921  -25.6837 N   0  0  0  0  0  0  0  0  0  0  0  0
   -1.5507   -5.9247  -27.0117 C   0  0  0  0  0  0  0  0  0  0  0  0
   -3.4600   -6.1943  -25.1606 N   0  0  0  0  0  0  0  0  0  0  0  0
  2  1  1  0  0  0
  2  3  1  0  0  0
  3  4  1  0  0  0
  4 19  1  0  0  0
 19 20  2  0  0  0
 20 21  1  0  0  0
 21 22  2  0  0  0
 22 23  1  0  0  0
 23 24  2  0  0  0
 24 25  1  0  0  0
 25 26  2  0  0  0
 26 27  1  0  0  0
 27 28  2  0  0  0
  4  5  1  0  0  0
  5  6  2  0  0  0
  5  7  1  0  0  0
  7  8  1  0  0  0
  8  9  1  0  0  0
  9 29  1  0  0  0
 29 30  1  0  0  0
 30 31  1  0  0  0
 31 32  2  0  0  0
 32 33  1  0  0  0
 33 34  1  0  0  0
 33 35  1  0  0  0
  9 10  1  0  0  0
 10 11  2  0  0  0
 10 12  1  0  0  0
 12 13  2  0  0  0
 13 14  1  0  0  0
 14 15  2  0  0  0
 15 16  1  0  0  0
 15 17  1  0  0  0
 17 18  2  0  0  0
  7  2  1  0  0  0
 35 30  2  0  0  0
 18 12  1  0  0  0
 28 19  1  0  0  0
 18  7  1  0  0  0
 28 23  1  0  0  0
M  END
> <minimizedAffinity>
-8.40833

> <CNNscore>
0.5439826250

> <CNNaffinity>
6.6139960289

> <CNN_VS>
3.5978989601

> <CNNaffinity_variance>
0.0872513503

$$$$



 35 40  0  0  0  0  0  0  0  0999 V2000
   -7.2684   -0.0185  -21.0958 C   0  0  0  0  0  0  0  0  0  0  0  0
   -8.4424   -0.1708  -22.0170 C   0  0  0  0  0  0  0  0  0  0  0  0
   -9.2363    1.0969  -22.1297 C   0  0  0  0  0  0  0  0  0  0  0  0
  -10.3808    0.8454  -23.0661 N   0  0  0  0  0  0  0  0  0  0  0  0
  -10.2942   -0.5778  -23.5321 C   0  0  0  0  0  0  0  0  0  0  0  0
  -11.2397   -1.2541  -24.4801 O   0  0  0  0  0  0  0  0  0  0  0  0
   -9.0962   -1.2058  -22.8837 C   0  0  0  0  0  0  0  0  0  0  0  0
   -9.8559   -2.1310  -23.7875 C   0  0  0  0  0  0  0  0  0  0  0  0
   -9.3931   -3.5457  -23.9733 N   0  0  0  0  0  0  0  0  0  0  0  0
   -8.1705   -4.0352  -23.2552 C   0  0  0  0  0  0  0  0  0  0  0  0
   -7.7076   -5.4498  -23.4409 O   0  0  0  0  0  0  0  0  0  0  0  0
   -7.4107   -3.1100  -22.3514 C   0  0  0  0  0  0  0  0  0  0  0  0
   -6.1881   -3.5995  -21.6333 C   0  0  0  0  0  0  0  0  0  0  0  0
   -5.4284   -2.6743  -20.7295 C   0  0  0  0  0  0  0  0  0  0  0  0
   -5.8913   -1.2597  -20.5438 C   0  0  0  0  0  0  0  0  0  0  0  0
   -5.1315   -0.3345  -19.6399 F   0  0  0  0  0  0  0  0  0  0  0  0
   -7.1139   -0.7702  -21.2618 C   0  0  0  0  0  0  0  0  0  0  0  0
   -7.8736   -1.6953  -22.1656 C   0  0  0  0  0  0  0  0  0  0  0  0
  -11.4280    1.8420  -23.4663 C   0  0  0  0  0  0  0  0  0  0  0  0
  -12.8164    1.7357  -22.9088 C   0  0  0  0  0  0  0  0  0  0  0  0
  -13.8636    2.7323  -23.3089 N   0  0  0  0  0  0  0  0  0  0  0  0
  -13.5223    3.8352  -24.2666 C   0  0  0  0  0  0  0  0  0  0  0  0
  -12.1338    3.9414  -24.8242 C   0  0  0  0  0  0  0  0  0  0  0  0
  -11.7925    5.0443  -25.7819 C   0  0  0  0  0  0  0  0  0  0  0  0
  -10.4040    5.1505  -26.3394 C   0  0  0  0  0  0  0  0  0  0  0  0
   -9.3569    4.1539  -25.9392 C   0  0  0  0  0  0  0  0  0  0  0  0
   -9.6982    3.0510  -24.9815 C   0  0  0  0  0  0  0  0  0  0  0  0
  -11.0866    2.9448  -24.4240 C   0  0  0  0  0  0  0  0  0  0  0  0
  -10.1529   -4.4708  -24.8771 C   0  0  0  0  0  0  0  0  0  0  0  0
   -9.4675   -5.1005  -26.0534 C   0  0  0  0  0  0  0  0  0  0  0  0
  -10.1009   -6.0214  -27.0537 C   0  0  0  0  0  0  0  0  0  0  0  0
   -9.0533   -6.4099  -28.0545 C   0  0  0  0  0  0  0  0  0  0  0  0
   -7.7723   -5.7291  -27.6727 N   0  0  0  0  0  0  0  0  0  0  0  0
   -6.4650   -5.8384  -28.3999 C   0  0  0  0  0  0  0  0  0  0  0  0
   -8.0284   -4.9199  -26.4359 N   0  0  0  0  0  0  0  0  0  0  0  0
  2  1  1  0  0  0
  2  3  1  0  0  0
  3  4  1  0  0  0
  4 19  1  0  0  0
 19 20  2  0  0  0
 20 21  1  0  0  0
 21 22  2  0  0  0
 22 23  1  0  0  0
 23 24  2  0  0  0
 24 25  1  0  0  0
 25 26  2  0  0  0
 26 27  1  0  0  0
 27 28  2  0  0  0
  4  5  1  0  0  0
  5  6  2  0  0  0
  5  7  1  0  0  0
  7  8  1  0  0  0
  8  9  1  0  0  0
  9 29  1  0  0  0
 29 30  1  0  0  0
 30 31  1  0  0  0
 31 32  2  0  0  0
 32 33  1  0  0  0
 33 34  1  0  0  0
 33 35  1  0  0  0
  9 10  1  0  0  0
 10 11  2  0  0  0
 10 12  1  0  0  0
 12 13  2  0  0  0
 13 14  1  0  0  0
 14 15  2  0  0  0
 15 16  1  0  0  0
 15 17  1  0  0  0
 17 18  2  0  0  0
  7  2  1  0  0  0
 35 30  2  0  0  0
 18 12  1  0  0  0
 28 19  1  0  0  0
 18  7  1  0  0  0
 28 23  1  0  0  0
M  END
> <minimizedAffinity>
-8.86076

> <CNNscore>
0.4234027863

> <CNNaffinity>
6.2326431274

> <CNN_VS>
2.6389183998

> <CNNaffinity_variance>
0.2914576530

$$$$



 35 40  0  0  0  0  0  0  0  0999 V2000
   -5.7665   -5.4267  -23.3867 C   0  0  0  0  0  0  0  0  0  0  0  0
   -6.4199   -4.2286  -22.7641 C   0  0  0  0  0  0  0  0  0  0  0  0
   -5.5342   -3.5701  -21.7483 C   0  0  0  0  0  0  0  0  0  0  0  0
   -6.2709   -2.3906  -21.1860 N   0  0  0  0  0  0  0  0  0  0  0  0
   -7.6120   -2.3203  -21.8543 C   0  0  0  0  0  0  0  0  0  0  0  0
   -8.6744   -1.2941  -21.5932 O   0  0  0  0  0  0  0  0  0  0  0  0
   -7.7040   -3.4562  -22.8296 C   0  0  0  0  0  0  0  0  0  0  0  0
   -8.9274   -2.5894  -22.7854 C   0  0  0  0  0  0  0  0  0  0  0  0
  -10.0981   -2.8987  -23.6708 N   0  0  0  0  0  0  0  0  0  0  0  0
  -10.0454   -4.0747  -24.6004 C   0  0  0  0  0  0  0  0  0  0  0  0
  -11.2161   -4.3839  -25.4858 O   0  0  0  0  0  0  0  0  0  0  0  0
   -8.8220   -4.9415  -24.6447 C   0  0  0  0  0  0  0  0  0  0  0  0
   -8.7692   -6.1175  -25.5743 C   0  0  0  0  0  0  0  0  0  0  0  0
   -7.5459   -6.9842  -25.6185 C   0  0  0  0  0  0  0  0  0  0  0  0
   -6.3752   -6.6750  -24.7331 C   0  0  0  0  0  0  0  0  0  0  0  0
   -5.1518   -7.5419  -24.7774 F   0  0  0  0  0  0  0  0  0  0  0  0
   -6.4279   -5.4990  -23.8035 C   0  0  0  0  0  0  0  0  0  0  0  0
   -7.6513   -4.6323  -23.7593 C   0  0  0  0  0  0  0  0  0  0  0  0
   -5.7569   -1.4472  -20.1392 C   0  0  0  0  0  0  0  0  0  0  0  0
   -6.1842   -1.6074  -18.7104 C   0  0  0  0  0  0  0  0  0  0  0  0
   -5.6702   -0.6640  -17.6636 N   0  0  0  0  0  0  0  0  0  0  0  0
   -4.7289    0.4396  -18.0458 C   0  0  0  0  0  0  0  0  0  0  0  0
   -4.3017    0.5998  -19.4747 C   0  0  0  0  0  0  0  0  0  0  0  0
   -3.3604    1.7035  -19.8568 C   0  0  0  0  0  0  0  0  0  0  0  0
   -2.9332    1.8636  -21.2858 C   0  0  0  0  0  0  0  0  0  0  0  0
   -3.4472    0.9202  -22.3325 C   0  0  0  0  0  0  0  0  0  0  0  0
   -4.3885   -0.1834  -21.9503 C   0  0  0  0  0  0  0  0  0  0  0  0
   -4.8157   -0.3436  -20.5215 C   0  0  0  0  0  0  0  0  0  0  0  0
  -11.3215   -2.0318  -23.6265 C   0  0  0  0  0  0  0  0  0  0  0  0
  -11.1914   -0.5435  -23.7599 C   0  0  0  0  0  0  0  0  0  0  0  0
  -12.1722    0.4756  -23.2605 C   0  0  0  0  0  0  0  0  0  0  0  0
  -11.6446    1.8360  -23.6081 C   0  0  0  0  0  0  0  0  0  0  0  0
  -10.3376    1.6578  -24.3223 N   0  0  0  0  0  0  0  0  0  0  0  0
   -9.4641    2.7571  -24.8500 C   0  0  0  0  0  0  0  0  0  0  0  0
  -10.0575    0.1872  -24.4161 N   0  0  0  0  0  0  0  0  0  0  0  0
  2  1  1  0  0  0
  2  3  1  0  0  0
  3  4  1  0  0  0
  4 19  1  0  0  0
 19 20  2  0  0  0
 20 21  1  0  0  0
 21 22  2  0  0  0
 22 23  1  0  0  0
 23 24  2  0  0  0
 24 25  1  0  0  0
 25 26  2  0  0  0
 26 27  1  0  0  0
 27 28  2  0  0  0
  4  5  1  0  0  0
  5  6  2  0  0  0
  5  7  1  0  0  0
  7  8  1  0  0  0
  8  9  1  0  0  0
  9 29  1  0  0  0
 29 30  1  0  0  0
 30 31  1  0  0  0
 31 32  2  0  0  0
 32 33  1  0  0  0
 33 34  1  0  0  0
 33 35  1  0  0  0
  9 10  1  0  0  0
 10 11  2  0  0  0
 10 12  1  0  0  0
 12 13  2  0  0  0
 13 14  1  0  0  0
 14 15  2  0  0  0
 15 16  1  0  0  0
 15 17  1  0  0  0
 17 18  2  0  0  0
  7  2  1  0  0  0
 35 30  2  0  0  0
 18 12  1  0  0  0
 28 19  1  0  0  0
 18  7  1  0  0  0
 28 23  1  0  0  0
M  END
> <minimizedAffinity>
-9.10888

> <CNNscore>
0.3082740903

> <CNNaffinity>
6.1491026878

> <CNN_VS>
1.8956090212

> <CNNaffinity_variance>
0.2099704444

$$$$



 35 40  0  0  0  0  0  0  0  0999 V2000
  -11.6982   -2.6032  -22.8861 C   0  0  0  0  0  0  0  0  0  0  0  0
  -10.2407   -2.4768  -23.2176 C   0  0  0  0  0  0  0  0  0  0  0  0
   -9.5070   -3.7713  -23.0281 C   0  0  0  0  0  0  0  0  0  0  0  0
   -8.0673   -3.5443  -23.3824 N   0  0  0  0  0  0  0  0  0  0  0  0
   -7.9111   -2.1095  -23.7908 C   0  0  0  0  0  0  0  0  0  0  0  0
   -6.6356   -1.4502  -24.2249 O   0  0  0  0  0  0  0  0  0  0  0  0
   -9.2544   -1.4497  -23.6890 C   0  0  0  0  0  0  0  0  0  0  0  0
   -8.1594   -0.5356  -24.1530 C   0  0  0  0  0  0  0  0  0  0  0  0
   -8.4630    0.8993  -24.4674 N   0  0  0  0  0  0  0  0  0  0  0  0
   -9.8616    1.4201  -24.3178 C   0  0  0  0  0  0  0  0  0  0  0  0
  -10.1653    2.8550  -24.6322 O   0  0  0  0  0  0  0  0  0  0  0  0
  -10.9568    0.5060  -23.8538 C   0  0  0  0  0  0  0  0  0  0  0  0
  -12.3554    1.0269  -23.7042 C   0  0  0  0  0  0  0  0  0  0  0  0
  -13.4504    0.1128  -23.2402 C   0  0  0  0  0  0  0  0  0  0  0  0
  -13.1468   -1.3221  -22.9258 C   0  0  0  0  0  0  0  0  0  0  0  0
  -14.2420   -2.2361  -22.4617 F   0  0  0  0  0  0  0  0  0  0  0  0
  -11.7482   -1.8429  -23.0754 C   0  0  0  0  0  0  0  0  0  0  0  0
  -10.6531   -0.9289  -23.5394 C   0  0  0  0  0  0  0  0  0  0  0  0
   -6.9753   -4.5717  -23.3362 C   0  0  0  0  0  0  0  0  0  0  0  0
   -6.1722   -4.7568  -22.0831 C   0  0  0  0  0  0  0  0  0  0  0  0
   -5.0803   -5.7842  -22.0370 N   0  0  0  0  0  0  0  0  0  0  0  0
   -4.7915   -6.6265  -23.2441 C   0  0  0  0  0  0  0  0  0  0  0  0
   -5.5948   -6.4413  -24.4974 C   0  0  0  0  0  0  0  0  0  0  0  0
   -5.3060   -7.2837  -25.7046 C   0  0  0  0  0  0  0  0  0  0  0  0
   -6.1093   -7.0985  -26.9578 C   0  0  0  0  0  0  0  0  0  0  0  0
   -7.2011   -6.0711  -27.0038 C   0  0  0  0  0  0  0  0  0  0  0  0
   -7.4898   -5.2288  -25.7966 C   0  0  0  0  0  0  0  0  0  0  0  0
   -6.6867   -5.4140  -24.5435 C   0  0  0  0  0  0  0  0  0  0  0  0
   -7.3679    1.8133  -24.9315 C   0  0  0  0  0  0  0  0  0  0  0  0
   -6.7597    2.7993  -23.9786 C   0  0  0  0  0  0  0  0  0  0  0  0
   -5.6091    2.5363  -23.0529 C   0  0  0  0  0  0  0  0  0  0  0  0
   -5.3337    3.7958  -22.2863 C   0  0  0  0  0  0  0  0  0  0  0  0
   -6.3142    4.8373  -22.7381 N   0  0  0  0  0  0  0  0  0  0  0  0
   -6.3985    6.2471  -22.2328 C   0  0  0  0  0  0  0  0  0  0  0  0
   -7.1955    4.2214  -23.7840 N   0  0  0  0  0  0  0  0  0  0  0  0
  2  1  1  0  0  0
  2  3  1  0  0  0
  3  4  1  0  0  0
  4 19  1  0  0  0
 19 20  2  0  0  0
 20 21  1  0  0  0
 21 22  2  0  0  0
 22 23  1  0  0  0
 23 24  2  0  0  0
 24 25  1  0  0  0
 25 26  2  0  0  0
 26 27  1  0  0  0
 27 28  2  0  0  0
  4  5  1  0  0  0
  5  6  2  0  0  0
  5  7  1  0  0  0
  7  8  1  0  0  0
  8  9  1  0  0  0
  9 29  1  0  0  0
 29 30  1  0  0  0
 30 31  1  0  0  0
 31 32  2  0  0  0
 32 33  1  0  0  0
 33 34  1  0  0  0
 33 35  1  0  0  0
  9 10  1  0  0  0
 10 11  2  0  0  0
 10 12  1  0  0  0
 12 13  2  0  0  0
 13 14  1  0  0  0
 14 15  2  0  0  0
 15 16  1  0  0  0
 15 17  1  0  0  0
 17 18  2  0  0  0
  7  2  1  0  0  0
 35 30  2  0  0  0
 18 12  1  0  0  0
 28 19  1  0  0  0
 18  7  1  0  0  0
 28 23  1  0  0  0
M  END
> <minimizedAffinity>
-7.76805

> <CNNscore>
0.3008247018

> <CNNaffinity>
6.4249053001

> <CNN_VS>
1.9327702522

> <CNNaffinity_variance>
0.1428562254

$$$$



 35 40  0  0  0  0  0  0  0  0999 V2000
  -11.1696   -2.2175  -24.3284 C   0  0  0  0  0  0  0  0  0  0  0  0
  -10.7011   -0.8349  -23.9834 C   0  0  0  0  0  0  0  0  0  0  0  0
  -11.8401    0.1362  -23.8854 C   0  0  0  0  0  0  0  0  0  0  0  0
  -11.2739    1.4813  -23.5389 N   0  0  0  0  0  0  0  0  0  0  0  0
   -9.7849    1.3415  -23.4229 C   0  0  0  0  0  0  0  0  0  0  0  0
   -8.8195    2.4404  -23.0905 O   0  0  0  0  0  0  0  0  0  0  0  0
   -9.4309   -0.0900  -23.6976 C   0  0  0  0  0  0  0  0  0  0  0  0
   -8.2498    0.7829  -23.3929 C   0  0  0  0  0  0  0  0  0  0  0  0
   -6.8682    0.1989  -23.3835 N   0  0  0  0  0  0  0  0  0  0  0  0
   -6.6677   -1.2580  -23.6788 C   0  0  0  0  0  0  0  0  0  0  0  0
   -5.2861   -1.8420  -23.6693 O   0  0  0  0  0  0  0  0  0  0  0  0
   -7.8489   -2.1310  -23.9835 C   0  0  0  0  0  0  0  0  0  0  0  0
   -7.6485   -3.5879  -24.2788 C   0  0  0  0  0  0  0  0  0  0  0  0
   -8.8296   -4.4607  -24.5835 C   0  0  0  0  0  0  0  0  0  0  0  0
  -10.2112   -3.8767  -24.5930 C   0  0  0  0  0  0  0  0  0  0  0  0
  -11.3924   -4.7497  -24.8977 F   0  0  0  0  0  0  0  0  0  0  0  0
  -10.4117   -2.4198  -24.2977 C   0  0  0  0  0  0  0  0  0  0  0  0
   -9.2305   -1.5470  -23.9929 C   0  0  0  0  0  0  0  0  0  0  0  0
  -12.0588    2.7444  -23.3429 C   0  0  0  0  0  0  0  0  0  0  0  0
  -13.0127    2.8637  -22.1916 C   0  0  0  0  0  0  0  0  0  0  0  0
  -13.7976    4.1268  -21.9956 N   0  0  0  0  0  0  0  0  0  0  0  0
  -13.6285    5.2707  -22.9510 C   0  0  0  0  0  0  0  0  0  0  0  0
  -12.6746    5.1514  -24.1025 C   0  0  0  0  0  0  0  0  0  0  0  0
  -12.5055    6.2954  -25.0580 C   0  0  0  0  0  0  0  0  0  0  0  0
  -11.5516    6.1761  -26.2094 C   0  0  0  0  0  0  0  0  0  0  0  0
  -10.7668    4.9130  -26.4053 C   0  0  0  0  0  0  0  0  0  0  0  0
  -10.9358    3.7691  -25.4498 C   0  0  0  0  0  0  0  0  0  0  0  0
  -11.8897    3.8883  -24.2985 C   0  0  0  0  0  0  0  0  0  0  0  0
   -5.6870    1.0718  -23.0787 C   0  0  0  0  0  0  0  0  0  0  0  0
   -5.0992    1.0835  -21.6988 C   0  0  0  0  0  0  0  0  0  0  0  0
   -3.8288    1.7668  -21.2874 C   0  0  0  0  0  0  0  0  0  0  0  0
   -3.6230    1.5196  -19.8223 C   0  0  0  0  0  0  0  0  0  0  0  0
   -4.7662    0.6835  -19.3282 N   0  0  0  0  0  0  0  0  0  0  0  0
   -4.9626    0.2015  -17.9214 C   0  0  0  0  0  0  0  0  0  0  0  0
   -5.6785    0.4140  -20.4880 N   0  0  0  0  0  0  0  0  0  0  0  0
  2  1  1  0  0  0
  2  3  1  0  0  0
  3  4  1  0  0  0
  4 19  1  0  0  0
 19 20  2  0  0  0
 20 21  1  0  0  0
 21 22  2  0  0  0
 22 23  1  0  0  0
 23 24  2  0  0  0
 24 25  1  0  0  0
 25 26  2  0  0  0
 26 27  1  0  0  0
 27 28  2  0  0  0
  4  5  1  0  0  0
  5  6  2  0  0  0
  5  7  1  0  0  0
  7  8  1  0  0  0
  8  9  1  0  0  0
  9 29  1  0  0  0
 29 30  1  0  0  0
 30 31  1  0  0  0
 31 32  2  0  0  0
 32 33  1  0  0  0
 33 34  1  0  0  0
 33 35  1  0  0  0
  9 10  1  0  0  0
 10 11  2  0  0  0
 10 12  1  0  0  0
 12 13  2  0  0  0
 13 14  1  0  0  0
 14 15  2  0  0  0
 15 16  1  0  0  0
 15 17  1  0  0  0
 17 18  2  0  0  0
  7  2  1  0  0  0
 35 30  2  0  0  0
 18 12  1  0  0  0
 28 19  1  0  0  0
 18  7  1  0  0  0
 28 23  1  0  0  0
M  END
> <minimizedAffinity>
-7.93847

> <CNNscore>
0.2434572875

> <CNNaffinity>
6.2146096230

> <CNN_VS>
1.5129920244

> <CNNaffinity_variance>
0.0917234123

$$$$



 35 40  0  0  0  0  0  0  0  0999 V2000
   -9.8216   -1.3657  -23.1442 C   0  0  0  0  0  0  0  0  0  0  0  0
   -9.1769   -0.0244  -23.3325 C   0  0  0  0  0  0  0  0  0  0  0  0
   -7.6796   -0.1143  -23.3221 C   0  0  0  0  0  0  0  0  0  0  0  0
   -7.1309    1.2682  -23.5160 N   0  0  0  0  0  0  0  0  0  0  0  0
   -8.2890    2.2125  -23.6463 C   0  0  0  0  0  0  0  0  0  0  0  0
   -8.1986    3.6954  -23.8536 O   0  0  0  0  0  0  0  0  0  0  0  0
   -9.5535    1.4136  -23.5329 C   0  0  0  0  0  0  0  0  0  0  0  0
   -9.7764    2.8827  -23.7378 C   0  0  0  0  0  0  0  0  0  0  0  0
  -11.1724    3.4265  -23.8118 N   0  0  0  0  0  0  0  0  0  0  0  0
  -12.3456    2.5011  -23.6808 C   0  0  0  0  0  0  0  0  0  0  0  0
  -13.7416    3.0448  -23.7548 O   0  0  0  0  0  0  0  0  0  0  0  0
  -12.1228    1.0319  -23.4759 C   0  0  0  0  0  0  0  0  0  0  0  0
  -13.2960    0.1065  -23.3449 C   0  0  0  0  0  0  0  0  0  0  0  0
  -13.0732   -1.3626  -23.1400 C   0  0  0  0  0  0  0  0  0  0  0  0
  -11.6771   -1.9063  -23.0660 C   0  0  0  0  0  0  0  0  0  0  0  0
  -11.4543   -3.3755  -22.8611 F   0  0  0  0  0  0  0  0  0  0  0  0
  -10.5039   -0.9809  -23.1970 C   0  0  0  0  0  0  0  0  0  0  0  0
  -10.7268    0.4882  -23.4019 C   0  0  0  0  0  0  0  0  0  0  0  0
   -5.6789    1.6410  -23.5702 C   0  0  0  0  0  0  0  0  0  0  0  0
   -5.0659    2.0826  -24.8659 C   0  0  0  0  0  0  0  0  0  0  0  0
   -3.6139    2.4554  -24.9200 N   0  0  0  0  0  0  0  0  0  0  0  0
   -2.7751    2.3865  -23.6784 C   0  0  0  0  0  0  0  0  0  0  0  0
   -3.3883    1.9448  -22.3826 C   0  0  0  0  0  0  0  0  0  0  0  0
   -2.5494    1.8759  -21.1409 C   0  0  0  0  0  0  0  0  0  0  0  0
   -3.1626    1.4342  -19.8452 C   0  0  0  0  0  0  0  0  0  0  0  0
   -4.6145    1.0615  -19.7912 C   0  0  0  0  0  0  0  0  0  0  0  0
   -5.4533    1.1304  -21.0328 C   0  0  0  0  0  0  0  0  0  0  0  0
   -4.8402    1.5720  -22.3285 C   0  0  0  0  0  0  0  0  0  0  0  0
  -11.3952    4.8956  -24.0167 C   0  0  0  0  0  0  0  0  0  0  0  0
  -11.7748    5.4148  -25.3718 C   0  0  0  0  0  0  0  0  0  0  0  0
  -10.8281    5.9251  -26.4174 C   0  0  0  0  0  0  0  0  0  0  0  0
  -11.6360    6.3405  -27.6111 C   0  0  0  0  0  0  0  0  0  0  0  0
  -13.0820    6.0869  -27.3032 N   0  0  0  0  0  0  0  0  0  0  0  0
  -14.2391    6.3579  -28.2185 C   0  0  0  0  0  0  0  0  0  0  0  0
  -13.1678    5.5148  -25.9192 N   0  0  0  0  0  0  0  0  0  0  0  0
  2  1  1  0  0  0
  2  3  1  0  0  0
  3  4  1  0  0  0
  4 19  1  0  0  0
 19 20  2  0  0  0
 20 21  1  0  0  0
 21 22  2  0  0  0
 22 23  1  0  0  0
 23 24  2  0  0  0
 24 25  1  0  0  0
 25 26  2  0  0  0
 26 27  1  0  0  0
 27 28  2  0  0  0
  4  5  1  0  0  0
  5  6  2  0  0  0
  5  7  1  0  0  0
  7  8  1  0  0  0
  8  9  1  0  0  0
  9 29  1  0  0  0
 29 30  1  0  0  0
 30 31  1  0  0  0
 31 32  2  0  0  0
 32 33  1  0  0  0
 33 34  1  0  0  0
 33 35  1  0  0  0
  9 10  1  0  0  0
 10 11  2  0  0  0
 10 12  1  0  0  0
 12 13  2  0  0  0
 13 14  1  0  0  0
 14 15  2  0  0  0
 15 16  1  0  0  0
 15 17  1  0  0  0
 17 18  2  0  0  0
  7  2  1  0  0  0
 35 30  2  0  0  0
 18 12  1  0  0  0
 28 19  1  0  0  0
 18  7  1  0  0  0
 28 23  1  0  0  0
M  END
> <minimizedAffinity>
-7.76072

> <CNNscore>
0.2237781137

> <CNNaffinity>
6.1067271233

> <CNN_VS>
1.3665518761

> <CNNaffinity_variance>
0.0604580268

$$$$



 35 40  0  0  0  0  0  0  0  0999 V2000
   -9.6172   -4.8735  -25.4608 C   0  0  0  0  0  0  0  0  0  0  0  0
   -9.5278   -3.7146  -24.5125 C   0  0  0  0  0  0  0  0  0  0  0  0
  -10.6304   -2.7218  -24.7331 C   0  0  0  0  0  0  0  0  0  0  0  0
  -10.4558   -1.6078  -23.7439 N   0  0  0  0  0  0  0  0  0  0  0  0
   -9.2454   -1.9122  -22.9120 C   0  0  0  0  0  0  0  0  0  0  0  0
   -8.7036   -1.0634  -21.8002 O   0  0  0  0  0  0  0  0  0  0  0  0
   -8.6718   -3.2142  -23.3870 C   0  0  0  0  0  0  0  0  0  0  0  0
   -7.9126   -2.5904  -22.2537 C   0  0  0  0  0  0  0  0  0  0  0  0
   -6.6965   -3.2724  -21.7003 N   0  0  0  0  0  0  0  0  0  0  0  0
   -6.2397   -4.5781  -22.2803 C   0  0  0  0  0  0  0  0  0  0  0  0
   -5.0236   -5.2600  -21.7269 O   0  0  0  0  0  0  0  0  0  0  0  0
   -6.9989   -5.2019  -23.4137 C   0  0  0  0  0  0  0  0  0  0  0  0
   -6.5420   -6.5076  -23.9936 C   0  0  0  0  0  0  0  0  0  0  0  0
   -7.3012   -7.1314  -25.1270 C   0  0  0  0  0  0  0  0  0  0  0  0
   -8.5173   -6.4494  -25.6803 C   0  0  0  0  0  0  0  0  0  0  0  0
   -9.2765   -7.0733  -26.8137 F   0  0  0  0  0  0  0  0  0  0  0  0
   -8.9741   -5.1438  -25.1003 C   0  0  0  0  0  0  0  0  0  0  0  0
   -8.2149   -4.5200  -23.9670 C   0  0  0  0  0  0  0  0  0  0  0  0
  -11.3370   -0.4013  -23.6102 C   0  0  0  0  0  0  0  0  0  0  0  0
  -12.7771   -0.5636  -23.2232 C   0  0  0  0  0  0  0  0  0  0  0  0
  -13.6582    0.6429  -23.0895 N   0  0  0  0  0  0  0  0  0  0  0  0
  -13.0993    2.0116  -23.3426 C   0  0  0  0  0  0  0  0  0  0  0  0
  -11.6591    2.1739  -23.7296 C   0  0  0  0  0  0  0  0  0  0  0  0
  -11.1001    3.5427  -23.9827 C   0  0  0  0  0  0  0  0  0  0  0  0
   -9.6600    3.7048  -24.3697 C   0  0  0  0  0  0  0  0  0  0  0  0
   -8.7789    2.4984  -24.5034 C   0  0  0  0  0  0  0  0  0  0  0  0
   -9.3379    1.1296  -24.2503 C   0  0  0  0  0  0  0  0  0  0  0  0
  -10.7779    0.9674  -23.8633 C   0  0  0  0  0  0  0  0  0  0  0  0
   -5.9373   -2.6485  -20.5669 C   0  0  0  0  0  0  0  0  0  0  0  0
   -5.3069   -1.2985  -20.7397 C   0  0  0  0  0  0  0  0  0  0  0  0
   -4.9934   -0.3249  -19.6425 C   0  0  0  0  0  0  0  0  0  0  0  0
   -4.3720    0.8903  -20.2647 C   0  0  0  0  0  0  0  0  0  0  0  0
   -4.3014    0.6678  -21.7464 N   0  0  0  0  0  0  0  0  0  0  0  0
   -3.7499    1.6292  -22.7571 C   0  0  0  0  0  0  0  0  0  0  0  0
   -4.8792   -0.6850  -22.0400 N   0  0  0  0  0  0  0  0  0  0  0  0
  2  1  1  0  0  0
  2  3  1  0  0  0
  3  4  1  0  0  0
  4 19  1  0  0  0
 19 20  2  0  0  0
 20 21  1  0  0  0
 21 22  2  0  0  0
 22 23  1  0  0  0
 23 24  2  0  0  0
 24 25  1  0  0  0
 25 26  2  0  0  0
 26 27  1  0  0  0
 27 28  2  0  0  0
  4  5  1  0  0  0
  5  6  2  0  0  0
  5  7  1  0  0  0
  7  8  1  0  0  0
  8  9  1  0  0  0
  9 29  1  0  0  0
 29 30  1  0  0  0
 30 31  1  0  0  0
 31 32  2  0  0  0
 32 33  1  0  0  0
 33 34  1  0  0  0
 33 35  1  0  0  0
  9 10  1  0  0  0
 10 11  2  0  0  0
 10 12  1  0  0  0
 12 13  2  0  0  0
 13 14  1  0  0  0
 14 15  2  0  0  0
 15 16  1  0  0  0
 15 17  1  0  0  0
 17 18  2  0  0  0
  7  2  1  0  0  0
 35 30  2  0  0  0
 18 12  1  0  0  0
 28 19  1  0  0  0
 18  7  1  0  0  0
 28 23  1  0  0  0
M  END
> <minimizedAffinity>
-8.38941

> <CNNscore>
0.2130813599

> <CNNaffinity>
6.2735552788

> <CNN_VS>
1.3367776871

> <CNNaffinity_variance>
0.1382842064

$$$$



 35 40  0  0  0  0  0  0  0  0999 V2000
   -5.4817    1.9822  -21.8743 C   0  0  0  0  0  0  0  0  0  0  0  0
   -6.4655    1.3611  -22.8211 C   0  0  0  0  0  0  0  0  0  0  0  0
   -7.8791    1.7377  -22.4896 C   0  0  0  0  0  0  0  0  0  0  0  0
   -8.7819    1.0723  -23.4857 N   0  0  0  0  0  0  0  0  0  0  0  0
   -7.9262    0.2844  -24.4328 C   0  0  0  0  0  0  0  0  0  0  0  0
   -8.4162   -0.5376  -25.5879 O   0  0  0  0  0  0  0  0  0  0  0  0
   -6.4946    0.4629  -24.0221 C   0  0  0  0  0  0  0  0  0  0  0  0
   -6.6799   -0.4195  -25.2208 C   0  0  0  0  0  0  0  0  0  0  0  0
   -5.4869   -1.0318  -25.8930 N   0  0  0  0  0  0  0  0  0  0  0  0
   -4.1086   -0.7617  -25.3665 C   0  0  0  0  0  0  0  0  0  0  0  0
   -2.9156   -1.3739  -26.0388 O   0  0  0  0  0  0  0  0  0  0  0  0
   -3.9233    0.1208  -24.1677 C   0  0  0  0  0  0  0  0  0  0  0  0
   -2.5450    0.3909  -23.6412 C   0  0  0  0  0  0  0  0  0  0  0  0
   -2.3597    1.2733  -22.4425 C   0  0  0  0  0  0  0  0  0  0  0  0
   -3.5527    1.8855  -21.7703 C   0  0  0  0  0  0  0  0  0  0  0  0
   -3.3673    2.7680  -20.5715 F   0  0  0  0  0  0  0  0  0  0  0  0
   -4.9310    1.6154  -22.2968 C   0  0  0  0  0  0  0  0  0  0  0  0
   -5.1163    0.7330  -23.4955 C   0  0  0  0  0  0  0  0  0  0  0  0
  -10.2777    1.1765  -23.5273 C   0  0  0  0  0  0  0  0  0  0  0  0
  -10.9292    2.4831  -23.8711 C   0  0  0  0  0  0  0  0  0  0  0  0
  -12.4250    2.5872  -23.9128 N   0  0  0  0  0  0  0  0  0  0  0  0
  -13.2692    1.3848  -23.6107 C   0  0  0  0  0  0  0  0  0  0  0  0
  -12.6176    0.0781  -23.2669 C   0  0  0  0  0  0  0  0  0  0  0  0
  -13.4620   -1.1244  -22.9647 C   0  0  0  0  0  0  0  0  0  0  0  0
  -12.8103   -2.4310  -22.6209 C   0  0  0  0  0  0  0  0  0  0  0  0
  -11.3146   -2.5351  -22.5793 C   0  0  0  0  0  0  0  0  0  0  0  0
  -10.4704   -1.3326  -22.8814 C   0  0  0  0  0  0  0  0  0  0  0  0
  -11.1219   -0.0261  -23.2252 C   0  0  0  0  0  0  0  0  0  0  0  0
   -5.6723   -1.9142  -27.0918 C   0  0  0  0  0  0  0  0  0  0  0  0
   -6.5019   -3.1594  -26.9855 C   0  0  0  0  0  0  0  0  0  0  0  0
   -6.1568   -4.3834  -26.1902 C   0  0  0  0  0  0  0  0  0  0  0  0
   -7.2638   -5.3797  -26.3689 C   0  0  0  0  0  0  0  0  0  0  0  0
   -8.2931   -4.7713  -27.2748 N   0  0  0  0  0  0  0  0  0  0  0  0
   -9.5692   -5.4211  -27.7212 C   0  0  0  0  0  0  0  0  0  0  0  0
   -7.8222   -3.3991  -27.6558 N   0  0  0  0  0  0  0  0  0  0  0  0
  2  1  1  0  0  0
  2  3  1  0  0  0
  3  4  1  0  0  0
  4 19  1  0  0  0
 19 20  2  0  0  0
 20 21  1  0  0  0
 21 22  2  0  0  0
 22 23  1  0  0  0
 23 24  2  0  0  0
 24 25  1  0  0  0
 25 26  2  0  0  0
 26 27  1  0  0  0
 27 28  2  0  0  0
  4  5  1  0  0  0
  5  6  2  0  0  0
  5  7  1  0  0  0
  7  8  1  0  0  0
  8  9  1  0  0  0
  9 29  1  0  0  0
 29 30  1  0  0  0
 30 31  1  0  0  0
 31 32  2  0  0  0
 32 33  1  0  0  0
 33 34  1  0  0  0
 33 35  1  0  0  0
  9 10  1  0  0  0
 10 11  2  0  0  0
 10 12  1  0  0  0
 12 13  2  0  0  0
 13 14  1  0  0  0
 14 15  2  0  0  0
 15 16  1  0  0  0
 15 17  1  0  0  0
 17 18  2  0  0  0
  7  2  1  0  0  0
 35 30  2  0  0  0
 18 12  1  0  0  0
 28 19  1  0  0  0
 18  7  1  0  0  0
 28 23  1  0  0  0
M  END
> <minimizedAffinity>
-7.48020

> <CNNscore>
0.1976980716

> <CNNaffinity>
5.9707784653

> <CNN_VS>
1.1804113388

> <CNNaffinity_variance>
0.1618530005

$$$$
