


 20 22  0  0  0  0  0  0  0  0999 V2000
   10.7393   -1.6628   22.7355 C   0  0  0  0  0  0  0  0  0  0  0  0
   11.5291   -2.0991   23.9338 C   0  0  0  0  0  0  0  0  0  0  0  0
   13.0156   -1.9011   23.9650 C   0  0  0  0  0  0  0  0  0  0  0  0
   13.8054   -2.3375   25.1633 N   0  0  0  0  0  0  0  0  0  0  0  0
   13.1086   -2.9719   26.3303 C   0  0  0  0  0  0  0  0  0  0  0  0
   11.6220   -3.1699   26.2991 C   0  0  0  0  0  0  0  0  0  0  0  0
   10.9253   -3.8043   27.4662 C   0  0  0  0  0  0  0  0  0  0  0  0
    9.4388   -4.0023   27.4349 C   0  0  0  0  0  0  0  0  0  0  0  0
    8.6490   -3.5660   26.2367 C   0  0  0  0  0  0  0  0  0  0  0  0
    9.3458   -2.9316   25.0696 C   0  0  0  0  0  0  0  0  0  0  0  0
   10.8323   -2.7336   25.1009 C   0  0  0  0  0  0  0  0  0  0  0  0
   11.4475    5.1739   22.8284 C   0  0  0  0  0  0  0  0  0  0  0  0
   11.0153    3.7375   22.8380 C   0  0  0  0  0  0  0  0  0  0  0  0
   12.0360    2.6463   22.7067 C   0  0  0  0  0  0  0  0  0  0  0  0
   11.6038    1.2099   22.7163 C   0  0  0  0  0  0  0  0  0  0  0  0
   10.1508    0.8648   22.8572 N   0  0  0  0  0  0  0  0  0  0  0  0
    9.7186   -0.5715   22.8668 C   0  0  0  0  0  0  0  0  0  0  0  0
    8.2656   -0.9166   23.0077 O   0  0  0  0  0  0  0  0  0  0  0  0
    9.1300    1.9561   22.9885 C   0  0  0  0  0  0  0  0  0  0  0  0
    9.5622    3.3925   22.9789 C   0  0  0  0  0  0  0  0  0  0  0  0
 12 13  1  0  0  0
 13 14  1  0  0  0
 14 15  1  0  0  0
 15 16  1  0  0  0
 16 17  1  0  0  0
 17 18  2  0  0  0
 17  1  1  0  0  0
  1  2  1  0  0  0
  2  3  2  0  0  0
  3  4  1  0  0  0
  4  5  2  0  0  0
  5  6  1  0  0  0
  6  7  2  0  0  0
  7  8  1  0  0  0
  8  9  2  0  0  0
  9 10  1  0  0  0
 10 11  2  0  0  0
 16 19  1  0  0  0
 19 20  1  0  0  0
 20 13  1  0  0  0
 11  2  1  0  0  0
 11  6  1  0  0  0
M  END
> <minimizedAffinity>
-6.69462

> <CNNscore>
0.7495992184

> <CNNaffinity>
5.4761705399

> <CNN_VS>
4.1049332619

> <CNNaffinity_variance>
0.1962252110

$$$$



 20 22  0  0  0  0  0  0  0  0999 V2000
    9.0480   -2.7962   23.1519 C   0  0  0  0  0  0  0  0  0  0  0  0
   10.2690   -1.9413   23.3208 C   0  0  0  0  0  0  0  0  0  0  0  0
   10.5047   -0.7803   22.4009 C   0  0  0  0  0  0  0  0  0  0  0  0
   11.7257    0.0746   22.5698 N   0  0  0  0  0  0  0  0  0  0  0  0
   12.7108   -0.2316   23.6586 C   0  0  0  0  0  0  0  0  0  0  0  0
   12.4751   -1.3927   24.5786 C   0  0  0  0  0  0  0  0  0  0  0  0
   13.4603   -1.6989   25.6675 C   0  0  0  0  0  0  0  0  0  0  0  0
   13.2246   -2.8600   26.5874 C   0  0  0  0  0  0  0  0  0  0  0  0
   12.0036   -3.7148   26.4185 C   0  0  0  0  0  0  0  0  0  0  0  0
   11.0184   -3.4086   25.3297 C   0  0  0  0  0  0  0  0  0  0  0  0
   11.2542   -2.2476   24.4097 C   0  0  0  0  0  0  0  0  0  0  0  0
    5.3203    0.3592   27.9890 C   0  0  0  0  0  0  0  0  0  0  0  0
    6.0755   -0.5657   27.0812 C   0  0  0  0  0  0  0  0  0  0  0  0
    6.7825   -0.0213   25.8755 C   0  0  0  0  0  0  0  0  0  0  0  0
    7.5377   -0.9463   24.9676 C   0  0  0  0  0  0  0  0  0  0  0  0
    7.5858   -2.4156   25.2655 N   0  0  0  0  0  0  0  0  0  0  0  0
    8.3410   -3.3406   24.3576 C   0  0  0  0  0  0  0  0  0  0  0  0
    8.3891   -4.8100   24.6555 O   0  0  0  0  0  0  0  0  0  0  0  0
    6.8787   -2.9601   26.4712 C   0  0  0  0  0  0  0  0  0  0  0  0
    6.1235   -2.0351   27.3790 C   0  0  0  0  0  0  0  0  0  0  0  0
 12 13  1  0  0  0
 13 14  1  0  0  0
 14 15  1  0  0  0
 15 16  1  0  0  0
 16 17  1  0  0  0
 17 18  2  0  0  0
 17  1  1  0  0  0
  1  2  1  0  0  0
  2  3  2  0  0  0
  3  4  1  0  0  0
  4  5  2  0  0  0
  5  6  1  0  0  0
  6  7  2  0  0  0
  7  8  1  0  0  0
  8  9  2  0  0  0
  9 10  1  0  0  0
 10 11  2  0  0  0
 16 19  1  0  0  0
 19 20  1  0  0  0
 20 13  1  0  0  0
 11  2  1  0  0  0
 11  6  1  0  0  0
M  END
> <minimizedAffinity>
-6.41156

> <CNNscore>
0.7376755476

> <CNNaffinity>
5.3929796219

> <CNN_VS>
3.9782691002

> <CNNaffinity_variance>
0.0906427652

$$$$



 20 22  0  0  0  0  0  0  0  0999 V2000
    8.4082   -0.6634   24.8054 C   0  0  0  0  0  0  0  0  0  0  0  0
    9.8293   -0.4153   24.3944 C   0  0  0  0  0  0  0  0  0  0  0  0
   10.1414    0.6355   23.3705 C   0  0  0  0  0  0  0  0  0  0  0  0
   11.5625    0.8836   22.9595 N   0  0  0  0  0  0  0  0  0  0  0  0
   12.6715    0.0809   23.5723 C   0  0  0  0  0  0  0  0  0  0  0  0
   12.3595   -0.9699   24.5963 C   0  0  0  0  0  0  0  0  0  0  0  0
   13.4686   -1.7726   25.2091 C   0  0  0  0  0  0  0  0  0  0  0  0
   13.1565   -2.8234   26.2330 C   0  0  0  0  0  0  0  0  0  0  0  0
   11.7354   -3.0715   26.6441 C   0  0  0  0  0  0  0  0  0  0  0  0
   10.6264   -2.2688   26.0312 C   0  0  0  0  0  0  0  0  0  0  0  0
   10.9384   -1.2180   25.0073 C   0  0  0  0  0  0  0  0  0  0  0  0
    6.7317   -7.1740   23.3733 C   0  0  0  0  0  0  0  0  0  0  0  0
    6.9065   -5.6884   23.4849 C   0  0  0  0  0  0  0  0  0  0  0  0
    7.8840   -5.1202   24.4706 C   0  0  0  0  0  0  0  0  0  0  0  0
    8.0587   -3.6346   24.5822 C   0  0  0  0  0  0  0  0  0  0  0  0
    7.2560   -2.7172   23.7082 N   0  0  0  0  0  0  0  0  0  0  0  0
    7.4307   -1.2316   23.8198 C   0  0  0  0  0  0  0  0  0  0  0  0
    6.6279   -0.3142   22.9457 O   0  0  0  0  0  0  0  0  0  0  0  0
    6.2784   -3.2854   22.7224 C   0  0  0  0  0  0  0  0  0  0  0  0
    6.1036   -4.7710   22.6108 C   0  0  0  0  0  0  0  0  0  0  0  0
 12 13  1  0  0  0
 13 14  1  0  0  0
 14 15  1  0  0  0
 15 16  1  0  0  0
 16 17  1  0  0  0
 17 18  2  0  0  0
 17  1  1  0  0  0
  1  2  1  0  0  0
  2  3  2  0  0  0
  3  4  1  0  0  0
  4  5  2  0  0  0
  5  6  1  0  0  0
  6  7  2  0  0  0
  7  8  1  0  0  0
  8  9  2  0  0  0
  9 10  1  0  0  0
 10 11  2  0  0  0
 16 19  1  0  0  0
 19 20  1  0  0  0
 20 13  1  0  0  0
 11  2  1  0  0  0
 11  6  1  0  0  0
M  END
> <minimizedAffinity>
-6.72427

> <CNNscore>
0.7015196681

> <CNNaffinity>
5.3749136925

> <CNN_VS>
3.7706077099

> <CNNaffinity_variance>
0.1445301473

$$$$



 20 22  0  0  0  0  0  0  0  0999 V2000
    9.1571   -1.9807   22.3583 C   0  0  0  0  0  0  0  0  0  0  0  0
   10.4932   -1.8453   23.0265 C   0  0  0  0  0  0  0  0  0  0  0  0
   11.5566   -0.9860   22.4096 C   0  0  0  0  0  0  0  0  0  0  0  0
   12.8927   -0.8506   23.0778 N   0  0  0  0  0  0  0  0  0  0  0  0
   13.1654   -1.5744   24.3629 C   0  0  0  0  0  0  0  0  0  0  0  0
   12.1019   -2.4337   24.9799 C   0  0  0  0  0  0  0  0  0  0  0  0
   12.3745   -3.1576   26.2651 C   0  0  0  0  0  0  0  0  0  0  0  0
   11.3111   -4.0168   26.8820 C   0  0  0  0  0  0  0  0  0  0  0  0
    9.9750   -4.1523   26.2138 C   0  0  0  0  0  0  0  0  0  0  0  0
    9.7023   -3.4284   24.9287 C   0  0  0  0  0  0  0  0  0  0  0  0
   10.7658   -2.5692   24.3117 C   0  0  0  0  0  0  0  0  0  0  0  0
    6.1051    2.7459   26.3073 C   0  0  0  0  0  0  0  0  0  0  0  0
    6.6720    1.8707   25.2291 C   0  0  0  0  0  0  0  0  0  0  0  0
    7.4563    0.6450   25.5930 C   0  0  0  0  0  0  0  0  0  0  0  0
    8.0232   -0.2302   24.5148 C   0  0  0  0  0  0  0  0  0  0  0  0
    7.8059    0.1203   23.0726 N   0  0  0  0  0  0  0  0  0  0  0  0
    8.3728   -0.7549   21.9944 C   0  0  0  0  0  0  0  0  0  0  0  0
    8.1555   -0.4044   20.5522 O   0  0  0  0  0  0  0  0  0  0  0  0
    7.0216    1.3461   22.7086 C   0  0  0  0  0  0  0  0  0  0  0  0
    6.4547    2.2213   23.7868 C   0  0  0  0  0  0  0  0  0  0  0  0
 12 13  1  0  0  0
 13 14  1  0  0  0
 14 15  1  0  0  0
 15 16  1  0  0  0
 16 17  1  0  0  0
 17 18  2  0  0  0
 17  1  1  0  0  0
  1  2  1  0  0  0
  2  3  2  0  0  0
  3  4  1  0  0  0
  4  5  2  0  0  0
  5  6  1  0  0  0
  6  7  2  0  0  0
  7  8  1  0  0  0
  8  9  2  0  0  0
  9 10  1  0  0  0
 10 11  2  0  0  0
 16 19  1  0  0  0
 19 20  1  0  0  0
 20 13  1  0  0  0
 11  2  1  0  0  0
 11  6  1  0  0  0
M  END
> <minimizedAffinity>
-6.37397

> <CNNscore>
0.6809065938

> <CNNaffinity>
5.3177022934

> <CNN_VS>
3.6208586693

> <CNNaffinity_variance>
0.0405956134

$$$$



 20 22  0  0  0  0  0  0  0  0999 V2000
    8.5568   -1.4708   22.2190 C   0  0  0  0  0  0  0  0  0  0  0  0
    9.1226   -2.3294   23.3110 C   0  0  0  0  0  0  0  0  0  0  0  0
    8.3310   -3.4885   23.8400 C   0  0  0  0  0  0  0  0  0  0  0  0
    8.8969   -4.3471   24.9320 N   0  0  0  0  0  0  0  0  0  0  0  0
   10.2542   -4.0466   25.4952 C   0  0  0  0  0  0  0  0  0  0  0  0
   11.0459   -2.8875   24.9662 C   0  0  0  0  0  0  0  0  0  0  0  0
   12.4033   -2.5870   25.5294 C   0  0  0  0  0  0  0  0  0  0  0  0
   13.1949   -1.4279   25.0004 C   0  0  0  0  0  0  0  0  0  0  0  0
   12.6291   -0.5693   23.9083 C   0  0  0  0  0  0  0  0  0  0  0  0
   11.2717   -0.8698   23.3452 C   0  0  0  0  0  0  0  0  0  0  0  0
   10.4801   -2.0289   23.8742 C   0  0  0  0  0  0  0  0  0  0  0  0
    6.1558    1.9816   27.6564 C   0  0  0  0  0  0  0  0  0  0  0  0
    6.7089    1.4863   26.3531 C   0  0  0  0  0  0  0  0  0  0  0  0
    6.8974    0.0152   26.1290 C   0  0  0  0  0  0  0  0  0  0  0  0
    7.4505   -0.4801   24.8256 C   0  0  0  0  0  0  0  0  0  0  0  0
    7.8152    0.4957   23.7464 N   0  0  0  0  0  0  0  0  0  0  0  0
    8.3684    0.0004   22.4431 C   0  0  0  0  0  0  0  0  0  0  0  0
    8.7331    0.9762   21.3638 O   0  0  0  0  0  0  0  0  0  0  0  0
    7.6268    1.9669   23.9705 C   0  0  0  0  0  0  0  0  0  0  0  0
    7.0737    2.4622   25.2738 C   0  0  0  0  0  0  0  0  0  0  0  0
 12 13  1  0  0  0
 13 14  1  0  0  0
 14 15  1  0  0  0
 15 16  1  0  0  0
 16 17  1  0  0  0
 17 18  2  0  0  0
 17  1  1  0  0  0
  1  2  1  0  0  0
  2  3  2  0  0  0
  3  4  1  0  0  0
  4  5  2  0  0  0
  5  6  1  0  0  0
  6  7  2  0  0  0
  7  8  1  0  0  0
  8  9  2  0  0  0
  9 10  1  0  0  0
 10 11  2  0  0  0
 16 19  1  0  0  0
 19 20  1  0  0  0
 20 13  1  0  0  0
 11  2  1  0  0  0
 11  6  1  0  0  0
M  END
> <minimizedAffinity>
-6.06427

> <CNNscore>
0.6688570976

> <CNNaffinity>
5.2623810768

> <CNN_VS>
3.5197808743

> <CNNaffinity_variance>
0.0761397034

$$$$



 20 22  0  0  0  0  0  0  0  0999 V2000
    9.4307   -3.0498   26.6225 C   0  0  0  0  0  0  0  0  0  0  0  0
   10.8062   -2.7108   26.1295 C   0  0  0  0  0  0  0  0  0  0  0  0
   11.9860   -3.5177   26.5844 C   0  0  0  0  0  0  0  0  0  0  0  0
   13.3615   -3.1786   26.0914 N   0  0  0  0  0  0  0  0  0  0  0  0
   13.5572   -2.0327   25.1436 C   0  0  0  0  0  0  0  0  0  0  0  0
   12.3774   -1.2257   24.6886 C   0  0  0  0  0  0  0  0  0  0  0  0
   12.5731   -0.0798   23.7408 C   0  0  0  0  0  0  0  0  0  0  0  0
   11.3933    0.7271   23.2859 C   0  0  0  0  0  0  0  0  0  0  0  0
   10.0178    0.3880   23.7789 C   0  0  0  0  0  0  0  0  0  0  0  0
    9.8221   -0.7579   24.7267 C   0  0  0  0  0  0  0  0  0  0  0  0
   11.0018   -1.5648   25.1816 C   0  0  0  0  0  0  0  0  0  0  0  0
    2.5838   -3.6410   26.7664 C   0  0  0  0  0  0  0  0  0  0  0  0
    4.0614   -3.6894   26.5128 C   0  0  0  0  0  0  0  0  0  0  0  0
    4.9978   -2.9047   27.3832 C   0  0  0  0  0  0  0  0  0  0  0  0
    6.4754   -2.9531   27.1296 C   0  0  0  0  0  0  0  0  0  0  0  0
    7.0166   -3.7861   26.0057 N   0  0  0  0  0  0  0  0  0  0  0  0
    8.4943   -3.8345   25.7522 C   0  0  0  0  0  0  0  0  0  0  0  0
    9.0355   -4.6675   24.6282 O   0  0  0  0  0  0  0  0  0  0  0  0
    6.0802   -4.5708   25.1353 C   0  0  0  0  0  0  0  0  0  0  0  0
    4.6026   -4.5224   25.3889 C   0  0  0  0  0  0  0  0  0  0  0  0
 12 13  1  0  0  0
 13 14  1  0  0  0
 14 15  1  0  0  0
 15 16  1  0  0  0
 16 17  1  0  0  0
 17 18  2  0  0  0
 17  1  1  0  0  0
  1  2  1  0  0  0
  2  3  2  0  0  0
  3  4  1  0  0  0
  4  5  2  0  0  0
  5  6  1  0  0  0
  6  7  2  0  0  0
  7  8  1  0  0  0
  8  9  2  0  0  0
  9 10  1  0  0  0
 10 11  2  0  0  0
 16 19  1  0  0  0
 19 20  1  0  0  0
 20 13  1  0  0  0
 11  2  1  0  0  0
 11  6  1  0  0  0
M  END
> <minimizedAffinity>
-6.26753

> <CNNscore>
0.6641519666

> <CNNaffinity>
5.3781743050

> <CNN_VS>
3.5719249249

> <CNNaffinity_variance>
0.1621589512

$$$$



 20 22  0  0  0  0  0  0  0  0999 V2000
    7.5265   -0.4507   21.1805 C   0  0  0  0  0  0  0  0  0  0  0  0
    6.5393    0.0255   20.1565 C   0  0  0  0  0  0  0  0  0  0  0  0
    6.8235   -0.1639   18.6959 C   0  0  0  0  0  0  0  0  0  0  0  0
    5.8362    0.3123   17.6719 N   0  0  0  0  0  0  0  0  0  0  0  0
    4.5649    0.9778   18.1084 C   0  0  0  0  0  0  0  0  0  0  0  0
    4.2806    1.1672   19.5690 C   0  0  0  0  0  0  0  0  0  0  0  0
    3.0092    1.8327   20.0056 C   0  0  0  0  0  0  0  0  0  0  0  0
    2.7250    2.0220   21.4662 C   0  0  0  0  0  0  0  0  0  0  0  0
    3.7123    1.5458   22.4902 C   0  0  0  0  0  0  0  0  0  0  0  0
    4.9837    0.8803   22.0537 C   0  0  0  0  0  0  0  0  0  0  0  0
    5.2678    0.6910   20.5931 C   0  0  0  0  0  0  0  0  0  0  0  0
   13.0166   -1.6614   25.1357 C   0  0  0  0  0  0  0  0  0  0  0  0
   11.9169   -1.1301   24.2649 C   0  0  0  0  0  0  0  0  0  0  0  0
   10.8256   -2.0447   23.7930 C   0  0  0  0  0  0  0  0  0  0  0  0
    9.7259   -1.5134   22.9222 C   0  0  0  0  0  0  0  0  0  0  0  0
    9.7175   -0.0674   22.5232 N   0  0  0  0  0  0  0  0  0  0  0  0
    8.6178    0.4639   21.6524 C   0  0  0  0  0  0  0  0  0  0  0  0
    8.6094    1.9099   21.2534 O   0  0  0  0  0  0  0  0  0  0  0  0
   10.8088    0.8472   22.9950 C   0  0  0  0  0  0  0  0  0  0  0  0
   11.9085    0.3159   23.8659 C   0  0  0  0  0  0  0  0  0  0  0  0
 12 13  1  0  0  0
 13 14  1  0  0  0
 14 15  1  0  0  0
 15 16  1  0  0  0
 16 17  1  0  0  0
 17 18  2  0  0  0
 17  1  1  0  0  0
  1  2  1  0  0  0
  2  3  2  0  0  0
  3  4  1  0  0  0
  4  5  2  0  0  0
  5  6  1  0  0  0
  6  7  2  0  0  0
  7  8  1  0  0  0
  8  9  2  0  0  0
  9 10  1  0  0  0
 10 11  2  0  0  0
 16 19  1  0  0  0
 19 20  1  0  0  0
 20 13  1  0  0  0
 11  2  1  0  0  0
 11  6  1  0  0  0
M  END
> <minimizedAffinity>
-7.09045

> <CNNscore>
0.6563330293

> <CNNaffinity>
5.2164168358

> <CNN_VS>
3.4237067699

> <CNNaffinity_variance>
0.1191100255

$$$$



 20 22  0  0  0  0  0  0  0  0999 V2000
    7.9953   -2.1589   26.0655 C   0  0  0  0  0  0  0  0  0  0  0  0
    9.4472   -2.5263   26.1489 C   0  0  0  0  0  0  0  0  0  0  0  0
    9.8808   -3.6818   27.0013 C   0  0  0  0  0  0  0  0  0  0  0  0
   11.3327   -4.0491   27.0847 N   0  0  0  0  0  0  0  0  0  0  0  0
   12.3511   -3.2609   26.3155 C   0  0  0  0  0  0  0  0  0  0  0  0
   11.9175   -2.1053   25.4630 C   0  0  0  0  0  0  0  0  0  0  0  0
   12.9359   -1.3172   24.6939 C   0  0  0  0  0  0  0  0  0  0  0  0
   12.5023   -0.1616   23.8414 C   0  0  0  0  0  0  0  0  0  0  0  0
   11.0504    0.2057   23.7581 C   0  0  0  0  0  0  0  0  0  0  0  0
   10.0320   -0.5825   24.5272 C   0  0  0  0  0  0  0  0  0  0  0  0
   10.4656   -1.7380   25.3797 C   0  0  0  0  0  0  0  0  0  0  0  0
    5.5355   -6.4528   21.2946 C   0  0  0  0  0  0  0  0  0  0  0  0
    5.8879   -5.6463   22.5092 C   0  0  0  0  0  0  0  0  0  0  0  0
    6.9379   -4.5786   22.4218 C   0  0  0  0  0  0  0  0  0  0  0  0
    7.2903   -3.7721   23.6364 C   0  0  0  0  0  0  0  0  0  0  0  0
    6.5928   -4.0332   24.9384 N   0  0  0  0  0  0  0  0  0  0  0  0
    6.9453   -3.2266   26.1530 C   0  0  0  0  0  0  0  0  0  0  0  0
    6.2477   -3.4877   27.4550 O   0  0  0  0  0  0  0  0  0  0  0  0
    5.5428   -5.1008   25.0259 C   0  0  0  0  0  0  0  0  0  0  0  0
    5.1904   -5.9074   23.8113 C   0  0  0  0  0  0  0  0  0  0  0  0
 12 13  1  0  0  0
 13 14  1  0  0  0
 14 15  1  0  0  0
 15 16  1  0  0  0
 16 17  1  0  0  0
 17 18  2  0  0  0
 17  1  1  0  0  0
  1  2  1  0  0  0
  2  3  2  0  0  0
  3  4  1  0  0  0
  4  5  2  0  0  0
  5  6  1  0  0  0
  6  7  2  0  0  0
  7  8  1  0  0  0
  8  9  2  0  0  0
  9 10  1  0  0  0
 10 11  2  0  0  0
 16 19  1  0  0  0
 19 20  1  0  0  0
 20 13  1  0  0  0
 11  2  1  0  0  0
 11  6  1  0  0  0
M  END
> <minimizedAffinity>
-6.42568

> <CNNscore>
0.6427217722

> <CNNaffinity>
5.3578443527

> <CNN_VS>
3.4436032772

> <CNNaffinity_variance>
0.1475039423

$$$$



 20 22  0  0  0  0  0  0  0  0999 V2000
    9.7192   -1.8944   22.3396 C   0  0  0  0  0  0  0  0  0  0  0  0
    9.7092   -2.6591   23.6300 C   0  0  0  0  0  0  0  0  0  0  0  0
    8.4713   -3.3891   24.0596 C   0  0  0  0  0  0  0  0  0  0  0  0
    8.4613   -4.1538   25.3500 N   0  0  0  0  0  0  0  0  0  0  0  0
    9.6892   -4.1885   26.2107 C   0  0  0  0  0  0  0  0  0  0  0  0
   10.9272   -3.4584   25.7812 C   0  0  0  0  0  0  0  0  0  0  0  0
   12.1551   -3.4930   26.6419 C   0  0  0  0  0  0  0  0  0  0  0  0
   13.3930   -2.7630   26.2123 C   0  0  0  0  0  0  0  0  0  0  0  0
   13.4030   -1.9983   24.9219 C   0  0  0  0  0  0  0  0  0  0  0  0
   12.1751   -1.9636   24.0612 C   0  0  0  0  0  0  0  0  0  0  0  0
   10.9372   -2.6937   24.4908 C   0  0  0  0  0  0  0  0  0  0  0  0
   11.7145    4.6447   23.0537 C   0  0  0  0  0  0  0  0  0  0  0  0
   11.0227    3.3301   22.8454 C   0  0  0  0  0  0  0  0  0  0  0  0
   11.7944    2.0494   22.9642 C   0  0  0  0  0  0  0  0  0  0  0  0
   11.1027    0.7348   22.7560 C   0  0  0  0  0  0  0  0  0  0  0  0
    9.6392    0.7009   22.4290 N   0  0  0  0  0  0  0  0  0  0  0  0
    8.9474   -0.6136   22.2207 C   0  0  0  0  0  0  0  0  0  0  0  0
    7.4839   -0.6475   21.8937 O   0  0  0  0  0  0  0  0  0  0  0  0
    8.8674    1.9817   22.3101 C   0  0  0  0  0  0  0  0  0  0  0  0
    9.5592    3.2963   22.5184 C   0  0  0  0  0  0  0  0  0  0  0  0
 12 13  1  0  0  0
 13 14  1  0  0  0
 14 15  1  0  0  0
 15 16  1  0  0  0
 16 17  1  0  0  0
 17 18  2  0  0  0
 17  1  1  0  0  0
  1  2  1  0  0  0
  2  3  2  0  0  0
  3  4  1  0  0  0
  4  5  2  0  0  0
  5  6  1  0  0  0
  6  7  2  0  0  0
  7  8  1  0  0  0
  8  9  2  0  0  0
  9 10  1  0  0  0
 10 11  2  0  0  0
 16 19  1  0  0  0
 19 20  1  0  0  0
 20 13  1  0  0  0
 11  2  1  0  0  0
 11  6  1  0  0  0
M  END
> <minimizedAffinity>
-7.05762

> <CNNscore>
0.6291372776

> <CNNaffinity>
5.2534093857

> <CNN_VS>
3.3051156998

> <CNNaffinity_variance>
0.1797478497

$$$$
