


 20 22  0  0  0  0  0  0  0  0999 V2000
   -6.4519   -2.0405  -21.7128 C   0  0  0  0  0  0  0  0  0  0  0  0
   -5.9962   -1.2221  -20.5412 C   0  0  0  0  0  0  0  0  0  0  0  0
   -6.6825   -1.3640  -19.2150 C   0  0  0  0  0  0  0  0  0  0  0  0
   -6.2269   -0.5457  -18.0434 N   0  0  0  0  0  0  0  0  0  0  0  0
   -5.0849    0.4145  -18.1979 C   0  0  0  0  0  0  0  0  0  0  0  0
   -4.3985    0.5564  -19.5242 C   0  0  0  0  0  0  0  0  0  0  0  0
   -3.2565    1.5165  -19.6787 C   0  0  0  0  0  0  0  0  0  0  0  0
   -2.5702    1.6584  -21.0049 C   0  0  0  0  0  0  0  0  0  0  0  0
   -3.0259    0.8400  -22.1765 C   0  0  0  0  0  0  0  0  0  0  0  0
   -4.1678   -0.1201  -22.0220 C   0  0  0  0  0  0  0  0  0  0  0  0
   -4.8542   -0.2619  -20.6958 C   0  0  0  0  0  0  0  0  0  0  0  0
   -9.0143   -6.9901  -25.7358 C   0  0  0  0  0  0  0  0  0  0  0  0
   -8.3062   -6.1215  -24.7388 C   0  0  0  0  0  0  0  0  0  0  0  0
   -8.5762   -4.6464  -24.7039 C   0  0  0  0  0  0  0  0  0  0  0  0
   -7.8681   -3.7777  -23.7069 C   0  0  0  0  0  0  0  0  0  0  0  0
   -6.8900   -4.3842  -22.7448 N   0  0  0  0  0  0  0  0  0  0  0  0
   -6.1819   -3.5155  -21.7478 C   0  0  0  0  0  0  0  0  0  0  0  0
   -5.2038   -4.1220  -20.7857 O   0  0  0  0  0  0  0  0  0  0  0  0
   -6.6200   -5.8593  -22.7797 C   0  0  0  0  0  0  0  0  0  0  0  0
   -7.3282   -6.7279  -23.7767 C   0  0  0  0  0  0  0  0  0  0  0  0
 12 13  1  0  0  0
 13 14  1  0  0  0
 14 15  1  0  0  0
 15 16  1  0  0  0
 16 17  1  0  0  0
 17 18  2  0  0  0
 17  1  1  0  0  0
  1  2  1  0  0  0
  2  3  2  0  0  0
  3  4  1  0  0  0
  4  5  2  0  0  0
  5  6  1  0  0  0
  6  7  2  0  0  0
  7  8  1  0  0  0
  8  9  2  0  0  0
  9 10  1  0  0  0
 10 11  2  0  0  0
 16 19  1  0  0  0
 19 20  1  0  0  0
 20 13  1  0  0  0
 11  2  1  0  0  0
 11  6  1  0  0  0
M  END
> <minimizedAffinity>
-7.14617

> <CNNscore>
0.7668414116

> <CNNaffinity>
5.0668234825

> <CNN_VS>
3.8854501247

> <CNNaffinity_variance>
0.3100865483

$$$$



 20 22  0  0  0  0  0  0  0  0999 V2000
   -6.5797   -2.2138  -21.6019 C   0  0  0  0  0  0  0  0  0  0  0  0
   -6.0418   -1.3699  -20.4845 C   0  0  0  0  0  0  0  0  0  0  0  0
   -6.6107   -1.5034  -19.1030 C   0  0  0  0  0  0  0  0  0  0  0  0
   -6.0729   -0.6595  -17.9856 N   0  0  0  0  0  0  0  0  0  0  0  0
   -4.9661    0.3179  -18.2497 C   0  0  0  0  0  0  0  0  0  0  0  0
   -4.3972    0.4514  -19.6312 C   0  0  0  0  0  0  0  0  0  0  0  0
   -3.2904    1.4288  -19.8953 C   0  0  0  0  0  0  0  0  0  0  0  0
   -2.7215    1.5622  -21.2767 C   0  0  0  0  0  0  0  0  0  0  0  0
   -3.2594    0.7183  -22.3941 C   0  0  0  0  0  0  0  0  0  0  0  0
   -4.3661   -0.2590  -22.1301 C   0  0  0  0  0  0  0  0  0  0  0  0
   -4.9350   -0.3925  -20.7486 C   0  0  0  0  0  0  0  0  0  0  0  0
  -10.3275   -5.6929  -26.1953 C   0  0  0  0  0  0  0  0  0  0  0  0
   -9.7367   -4.7624  -25.1779 C   0  0  0  0  0  0  0  0  0  0  0  0
   -8.3523   -5.0052  -24.6541 C   0  0  0  0  0  0  0  0  0  0  0  0
   -7.7614   -4.0747  -23.6367 C   0  0  0  0  0  0  0  0  0  0  0  0
   -8.5550   -2.9015  -23.1431 N   0  0  0  0  0  0  0  0  0  0  0  0
   -7.9641   -1.9710  -22.1256 C   0  0  0  0  0  0  0  0  0  0  0  0
   -8.7577   -0.7977  -21.6320 O   0  0  0  0  0  0  0  0  0  0  0  0
   -9.9394   -2.6586  -23.6669 C   0  0  0  0  0  0  0  0  0  0  0  0
  -10.5303   -3.5891  -24.6843 C   0  0  0  0  0  0  0  0  0  0  0  0
 12 13  1  0  0  0
 13 14  1  0  0  0
 14 15  1  0  0  0
 15 16  1  0  0  0
 16 17  1  0  0  0
 17 18  2  0  0  0
 17  1  1  0  0  0
  1  2  1  0  0  0
  2  3  2  0  0  0
  3  4  1  0  0  0
  4  5  2  0  0  0
  5  6  1  0  0  0
  6  7  2  0  0  0
  7  8  1  0  0  0
  8  9  2  0  0  0
  9 10  1  0  0  0
 10 11  2  0  0  0
 16 19  1  0  0  0
 19 20  1  0  0  0
 20 13  1  0  0  0
 11  2  1  0  0  0
 11  6  1  0  0  0
M  END
> <minimizedAffinity>
-6.77418

> <CNNscore>
0.6923321486

> <CNNaffinity>
4.9425287247

> <CNN_VS>
3.4218714237

> <CNNaffinity_variance>
0.2507669628

$$$$



 20 22  0  0  0  0  0  0  0  0999 V2000
   -6.4259   -1.6639  -21.2833 C   0  0  0  0  0  0  0  0  0  0  0  0
   -5.4711   -0.6642  -20.7011 C   0  0  0  0  0  0  0  0  0  0  0  0
   -5.5618   -0.2975  -19.2495 C   0  0  0  0  0  0  0  0  0  0  0  0
   -4.6069    0.7022  -18.6674 N   0  0  0  0  0  0  0  0  0  0  0  0
   -3.5614    1.3353  -19.5369 C   0  0  0  0  0  0  0  0  0  0  0  0
   -3.4707    0.9686  -20.9886 C   0  0  0  0  0  0  0  0  0  0  0  0
   -2.4252    1.6017  -21.8581 C   0  0  0  0  0  0  0  0  0  0  0  0
   -2.3345    1.2351  -23.3098 C   0  0  0  0  0  0  0  0  0  0  0  0
   -3.2893    0.2353  -23.8919 C   0  0  0  0  0  0  0  0  0  0  0  0
   -4.3349   -0.3977  -23.0224 C   0  0  0  0  0  0  0  0  0  0  0  0
   -4.4255   -0.0311  -21.5707 C   0  0  0  0  0  0  0  0  0  0  0  0
   -8.5837   -6.7619  -25.3581 C   0  0  0  0  0  0  0  0  0  0  0  0
   -7.9537   -5.8512  -24.3463 C   0  0  0  0  0  0  0  0  0  0  0  0
   -8.3160   -4.3959  -24.3186 C   0  0  0  0  0  0  0  0  0  0  0  0
   -7.6860   -3.4852  -23.3068 C   0  0  0  0  0  0  0  0  0  0  0  0
   -6.6936   -4.0298  -22.3227 N   0  0  0  0  0  0  0  0  0  0  0  0
   -6.0636   -3.1192  -21.3109 C   0  0  0  0  0  0  0  0  0  0  0  0
   -5.0711   -3.6638  -20.3268 O   0  0  0  0  0  0  0  0  0  0  0  0
   -6.3312   -5.4852  -22.3504 C   0  0  0  0  0  0  0  0  0  0  0  0
   -6.9612   -6.3959  -23.3622 C   0  0  0  0  0  0  0  0  0  0  0  0
 12 13  1  0  0  0
 13 14  1  0  0  0
 14 15  1  0  0  0
 15 16  1  0  0  0
 16 17  1  0  0  0
 17 18  2  0  0  0
 17  1  1  0  0  0
  1  2  1  0  0  0
  2  3  2  0  0  0
  3  4  1  0  0  0
  4  5  2  0  0  0
  5  6  1  0  0  0
  6  7  2  0  0  0
  7  8  1  0  0  0
  8  9  2  0  0  0
  9 10  1  0  0  0
 10 11  2  0  0  0
 16 19  1  0  0  0
 19 20  1  0  0  0
 20 13  1  0  0  0
 11  2  1  0  0  0
 11  6  1  0  0  0
M  END
> <minimizedAffinity>
-6.17450

> <CNNscore>
0.5715321898

> <CNNaffinity>
4.6998581886

> <CNN_VS>
2.6861202717

> <CNNaffinity_variance>
0.3320775926

$$$$



 20 22  0  0  0  0  0  0  0  0999 V2000
  -11.2108    1.6372  -22.8703 C   0  0  0  0  0  0  0  0  0  0  0  0
  -12.0065    2.8833  -23.1237 C   0  0  0  0  0  0  0  0  0  0  0  0
  -13.1785    3.2157  -22.2486 C   0  0  0  0  0  0  0  0  0  0  0  0
  -13.9742    4.4618  -22.5020 N   0  0  0  0  0  0  0  0  0  0  0  0
  -13.5979    5.3753  -23.6306 C   0  0  0  0  0  0  0  0  0  0  0  0
  -12.4259    5.0429  -24.5059 C   0  0  0  0  0  0  0  0  0  0  0  0
  -12.0497    5.9564  -25.6345 C   0  0  0  0  0  0  0  0  0  0  0  0
  -10.8778    5.6240  -26.5096 C   0  0  0  0  0  0  0  0  0  0  0  0
  -10.0821    4.3779  -26.2562 C   0  0  0  0  0  0  0  0  0  0  0  0
  -10.4583    3.4644  -25.1276 C   0  0  0  0  0  0  0  0  0  0  0  0
  -11.6302    3.7968  -24.2524 C   0  0  0  0  0  0  0  0  0  0  0  0
   -8.0683   -4.4626  -23.2776 C   0  0  0  0  0  0  0  0  0  0  0  0
   -8.9734   -3.2669  -23.3097 C   0  0  0  0  0  0  0  0  0  0  0  0
   -8.4954   -1.9499  -22.7741 C   0  0  0  0  0  0  0  0  0  0  0  0
   -9.4006   -0.7542  -22.8061 C   0  0  0  0  0  0  0  0  0  0  0  0
  -10.7836   -0.8755  -23.3739 N   0  0  0  0  0  0  0  0  0  0  0  0
  -11.6887    0.3202  -23.4059 C   0  0  0  0  0  0  0  0  0  0  0  0
  -13.0719    0.1988  -23.9737 O   0  0  0  0  0  0  0  0  0  0  0  0
  -11.2616   -2.1926  -23.9096 C   0  0  0  0  0  0  0  0  0  0  0  0
  -10.3565   -3.3883  -23.8775 C   0  0  0  0  0  0  0  0  0  0  0  0
 12 13  1  0  0  0
 13 14  1  0  0  0
 14 15  1  0  0  0
 15 16  1  0  0  0
 16 17  1  0  0  0
 17 18  2  0  0  0
 17  1  1  0  0  0
  1  2  1  0  0  0
  2  3  2  0  0  0
  3  4  1  0  0  0
  4  5  2  0  0  0
  5  6  1  0  0  0
  6  7  2  0  0  0
  7  8  1  0  0  0
  8  9  2  0  0  0
  9 10  1  0  0  0
 10 11  2  0  0  0
 16 19  1  0  0  0
 19 20  1  0  0  0
 20 13  1  0  0  0
 11  2  1  0  0  0
 11  6  1  0  0  0
M  END
> <minimizedAffinity>
-5.88528

> <CNNscore>
0.4686274529

> <CNNaffinity>
4.6374964714

> <CNN_VS>
2.1732580662

> <CNNaffinity_variance>
0.2429565936

$$$$



 20 22  0  0  0  0  0  0  0  0999 V2000
   -8.7740   -1.7714  -23.7629 C   0  0  0  0  0  0  0  0  0  0  0  0
  -10.2353   -1.6822  -23.4364 C   0  0  0  0  0  0  0  0  0  0  0  0
  -10.9833   -2.9082  -23.0036 C   0  0  0  0  0  0  0  0  0  0  0  0
  -12.4446   -2.8189  -22.6770 N   0  0  0  0  0  0  0  0  0  0  0  0
  -13.1579   -1.5037  -22.7832 C   0  0  0  0  0  0  0  0  0  0  0  0
  -12.4099   -0.2776  -23.2160 C   0  0  0  0  0  0  0  0  0  0  0  0
  -13.1232    1.0376  -23.3222 C   0  0  0  0  0  0  0  0  0  0  0  0
  -12.3752    2.2636  -23.7550 C   0  0  0  0  0  0  0  0  0  0  0  0
  -10.9139    2.1744  -24.0815 C   0  0  0  0  0  0  0  0  0  0  0  0
  -10.2006    0.8592  -23.9753 C   0  0  0  0  0  0  0  0  0  0  0  0
  -10.9486   -0.3668  -23.5426 C   0  0  0  0  0  0  0  0  0  0  0  0
   -8.4070   -6.7599  -28.4778 C   0  0  0  0  0  0  0  0  0  0  0  0
   -8.3250   -5.8450  -27.2920 C   0  0  0  0  0  0  0  0  0  0  0  0
   -9.0201   -4.5161  -27.3205 C   0  0  0  0  0  0  0  0  0  0  0  0
   -8.9381   -3.6012  -26.1346 C   0  0  0  0  0  0  0  0  0  0  0  0
   -8.1609   -4.0152  -24.9203 N   0  0  0  0  0  0  0  0  0  0  0  0
   -8.0789   -3.1003  -23.7344 C   0  0  0  0  0  0  0  0  0  0  0  0
   -7.3018   -3.5143  -22.5200 O   0  0  0  0  0  0  0  0  0  0  0  0
   -7.4658   -5.3441  -24.8917 C   0  0  0  0  0  0  0  0  0  0  0  0
   -7.5478   -6.2590  -26.0776 C   0  0  0  0  0  0  0  0  0  0  0  0
 12 13  1  0  0  0
 13 14  1  0  0  0
 14 15  1  0  0  0
 15 16  1  0  0  0
 16 17  1  0  0  0
 17 18  2  0  0  0
 17  1  1  0  0  0
  1  2  1  0  0  0
  2  3  2  0  0  0
  3  4  1  0  0  0
  4  5  2  0  0  0
  5  6  1  0  0  0
  6  7  2  0  0  0
  7  8  1  0  0  0
  8  9  2  0  0  0
  9 10  1  0  0  0
 10 11  2  0  0  0
 16 19  1  0  0  0
 19 20  1  0  0  0
 20 13  1  0  0  0
 11  2  1  0  0  0
 11  6  1  0  0  0
M  END
> <minimizedAffinity>
-5.88808

> <CNNscore>
0.4433799684

> <CNNaffinity>
4.6423072815

> <CNN_VS>
2.0583059788

> <CNNaffinity_variance>
0.2879369259

$$$$



 20 22  0  0  0  0  0  0  0  0999 V2000
   -8.7398   -1.3221  -23.9526 C   0  0  0  0  0  0  0  0  0  0  0  0
  -10.1947   -1.2573  -23.5931 C   0  0  0  0  0  0  0  0  0  0  0  0
  -10.9144   -2.4976  -23.1532 C   0  0  0  0  0  0  0  0  0  0  0  0
  -12.3693   -2.4329  -22.7937 N   0  0  0  0  0  0  0  0  0  0  0  0
  -13.1043   -1.1278  -22.8741 C   0  0  0  0  0  0  0  0  0  0  0  0
  -12.3846    0.1126  -23.3139 C   0  0  0  0  0  0  0  0  0  0  0  0
  -13.1196    1.4176  -23.3942 C   0  0  0  0  0  0  0  0  0  0  0  0
  -12.3998    2.6579  -23.8341 C   0  0  0  0  0  0  0  0  0  0  0  0
  -10.9450    2.5932  -24.1936 C   0  0  0  0  0  0  0  0  0  0  0  0
  -10.2099    1.2881  -24.1133 C   0  0  0  0  0  0  0  0  0  0  0  0
  -10.9297    0.0478  -23.6734 C   0  0  0  0  0  0  0  0  0  0  0  0
   -5.9741   -7.5304  -22.9245 C   0  0  0  0  0  0  0  0  0  0  0  0
   -6.4150   -6.0967  -22.9288 C   0  0  0  0  0  0  0  0  0  0  0  0
   -7.4170   -5.6233  -23.9396 C   0  0  0  0  0  0  0  0  0  0  0  0
   -7.8580   -4.1895  -23.9440 C   0  0  0  0  0  0  0  0  0  0  0  0
   -7.2969   -3.2293  -22.9375 N   0  0  0  0  0  0  0  0  0  0  0  0
   -7.7378   -1.7955  -22.9418 C   0  0  0  0  0  0  0  0  0  0  0  0
   -7.1767   -0.8353  -21.9352 O   0  0  0  0  0  0  0  0  0  0  0  0
   -6.2948   -3.7027  -21.9266 C   0  0  0  0  0  0  0  0  0  0  0  0
   -5.8539   -5.1364  -21.9223 C   0  0  0  0  0  0  0  0  0  0  0  0
 12 13  1  0  0  0
 13 14  1  0  0  0
 14 15  1  0  0  0
 15 16  1  0  0  0
 16 17  1  0  0  0
 17 18  2  0  0  0
 17  1  1  0  0  0
  1  2  1  0  0  0
  2  3  2  0  0  0
  3  4  1  0  0  0
  4  5  2  0  0  0
  5  6  1  0  0  0
  6  7  2  0  0  0
  7  8  1  0  0  0
  8  9  2  0  0  0
  9 10  1  0  0  0
 10 11  2  0  0  0
 16 19  1  0  0  0
 19 20  1  0  0  0
 20 13  1  0  0  0
 11  2  1  0  0  0
 11  6  1  0  0  0
M  END
> <minimizedAffinity>
-5.79151

> <CNNscore>
0.3929348886

> <CNNaffinity>
4.9320664406

> <CNN_VS>
1.9379810095

> <CNNaffinity_variance>
0.1700076610

$$$$



 20 22  0  0  0  0  0  0  0  0999 V2000
   -8.0965    0.3241  -22.1333 C   0  0  0  0  0  0  0  0  0  0  0  0
   -9.1937   -0.6338  -22.4917 C   0  0  0  0  0  0  0  0  0  0  0  0
   -8.9356   -2.1112  -22.4721 C   0  0  0  0  0  0  0  0  0  0  0  0
  -10.0329   -3.0691  -22.8304 N   0  0  0  0  0  0  0  0  0  0  0  0
  -11.3883   -2.5496  -23.2084 C   0  0  0  0  0  0  0  0  0  0  0  0
  -11.6465   -1.0720  -23.2280 C   0  0  0  0  0  0  0  0  0  0  0  0
  -13.0019   -0.5525  -23.6060 C   0  0  0  0  0  0  0  0  0  0  0  0
  -13.2600    0.9250  -23.6256 C   0  0  0  0  0  0  0  0  0  0  0  0
  -12.1627    1.8829  -23.2673 C   0  0  0  0  0  0  0  0  0  0  0  0
  -10.8073    1.3633  -22.8893 C   0  0  0  0  0  0  0  0  0  0  0  0
  -10.5492   -0.1141  -22.8697 C   0  0  0  0  0  0  0  0  0  0  0  0
   -1.9587    2.9085  -20.4307 C   0  0  0  0  0  0  0  0  0  0  0  0
   -3.2683    2.1896  -20.5652 C   0  0  0  0  0  0  0  0  0  0  0  0
   -4.1678    2.4811  -21.7297 C   0  0  0  0  0  0  0  0  0  0  0  0
   -5.4773    1.7621  -21.8642 C   0  0  0  0  0  0  0  0  0  0  0  0
   -5.8874    0.7516  -20.8344 N   0  0  0  0  0  0  0  0  0  0  0  0
   -7.1970    0.0326  -20.9689 C   0  0  0  0  0  0  0  0  0  0  0  0
   -7.6071   -0.9779  -19.9390 O   0  0  0  0  0  0  0  0  0  0  0  0
   -4.9879    0.4600  -19.6698 C   0  0  0  0  0  0  0  0  0  0  0  0
   -3.6784    1.1790  -19.5353 C   0  0  0  0  0  0  0  0  0  0  0  0
 12 13  1  0  0  0
 13 14  1  0  0  0
 14 15  1  0  0  0
 15 16  1  0  0  0
 16 17  1  0  0  0
 17 18  2  0  0  0
 17  1  1  0  0  0
  1  2  1  0  0  0
  2  3  2  0  0  0
  3  4  1  0  0  0
  4  5  2  0  0  0
  5  6  1  0  0  0
  6  7  2  0  0  0
  7  8  1  0  0  0
  8  9  2  0  0  0
  9 10  1  0  0  0
 10 11  2  0  0  0
 16 19  1  0  0  0
 19 20  1  0  0  0
 20 13  1  0  0  0
 11  2  1  0  0  0
 11  6  1  0  0  0
M  END
> <minimizedAffinity>
-6.55930

> <CNNscore>
0.3865794837

> <CNNaffinity>
4.4602952003

> <CNN_VS>
1.7242586613

> <CNNaffinity_variance>
0.2873130441

$$$$



 20 22  0  0  0  0  0  0  0  0999 V2000
   -5.3864   -1.3704  -20.3356 C   0  0  0  0  0  0  0  0  0  0  0  0
   -6.5003   -0.5617  -20.9317 C   0  0  0  0  0  0  0  0  0  0  0  0
   -7.8844   -1.1344  -21.0092 C   0  0  0  0  0  0  0  0  0  0  0  0
   -8.9984   -0.3257  -21.6053 N   0  0  0  0  0  0  0  0  0  0  0  0
   -8.7281    1.0555  -22.1238 C   0  0  0  0  0  0  0  0  0  0  0  0
   -7.3439    1.6283  -22.0463 C   0  0  0  0  0  0  0  0  0  0  0  0
   -7.0736    3.0096  -22.5648 C   0  0  0  0  0  0  0  0  0  0  0  0
   -5.6894    3.5822  -22.4873 C   0  0  0  0  0  0  0  0  0  0  0  0
   -4.5755    2.7736  -21.8912 C   0  0  0  0  0  0  0  0  0  0  0  0
   -4.8458    1.3923  -21.3727 C   0  0  0  0  0  0  0  0  0  0  0  0
   -6.2299    0.8197  -21.4502 C   0  0  0  0  0  0  0  0  0  0  0  0
   -6.6955   -5.7457  -25.4729 C   0  0  0  0  0  0  0  0  0  0  0  0
   -6.3849   -5.0265  -24.1938 C   0  0  0  0  0  0  0  0  0  0  0  0
   -6.3183   -3.5281  -24.1730 C   0  0  0  0  0  0  0  0  0  0  0  0
   -6.0076   -2.8089  -22.8939 C   0  0  0  0  0  0  0  0  0  0  0  0
   -5.7636   -3.5879  -21.6355 N   0  0  0  0  0  0  0  0  0  0  0  0
   -5.4530   -2.8687  -20.3564 C   0  0  0  0  0  0  0  0  0  0  0  0
   -5.2089   -3.6479  -19.0980 O   0  0  0  0  0  0  0  0  0  0  0  0
   -5.8302   -5.0864  -21.6563 C   0  0  0  0  0  0  0  0  0  0  0  0
   -6.1409   -5.8056  -22.9354 C   0  0  0  0  0  0  0  0  0  0  0  0
 12 13  1  0  0  0
 13 14  1  0  0  0
 14 15  1  0  0  0
 15 16  1  0  0  0
 16 17  1  0  0  0
 17 18  2  0  0  0
 17  1  1  0  0  0
  1  2  1  0  0  0
  2  3  2  0  0  0
  3  4  1  0  0  0
  4  5  2  0  0  0
  5  6  1  0  0  0
  6  7  2  0  0  0
  7  8  1  0  0  0
  8  9  2  0  0  0
  9 10  1  0  0  0
 10 11  2  0  0  0
 16 19  1  0  0  0
 19 20  1  0  0  0
 20 13  1  0  0  0
 11  2  1  0  0  0
 11  6  1  0  0  0
M  END
> <minimizedAffinity>
-5.95338

> <CNNscore>
0.3787274659

> <CNNaffinity>
4.7585515976

> <CNN_VS>
1.8021942377

> <CNNaffinity_variance>
0.0674445331

$$$$



 20 22  0  0  0  0  0  0  0  0999 V2000
   -8.5698   -2.0685  -23.5296 C   0  0  0  0  0  0  0  0  0  0  0  0
   -9.5635   -0.9612  -23.7205 C   0  0  0  0  0  0  0  0  0  0  0  0
   -9.1161    0.3622  -24.2668 C   0  0  0  0  0  0  0  0  0  0  0  0
  -10.1098    1.4695  -24.4578 N   0  0  0  0  0  0  0  0  0  0  0  0
  -11.5509    1.2534  -24.1024 C   0  0  0  0  0  0  0  0  0  0  0  0
  -11.9984   -0.0700  -23.5561 C   0  0  0  0  0  0  0  0  0  0  0  0
  -13.4396   -0.2861  -23.2007 C   0  0  0  0  0  0  0  0  0  0  0  0
  -13.8870   -1.6094  -22.6544 C   0  0  0  0  0  0  0  0  0  0  0  0
  -12.8933   -2.7167  -22.4635 C   0  0  0  0  0  0  0  0  0  0  0  0
  -11.4522   -2.5007  -22.8189 C   0  0  0  0  0  0  0  0  0  0  0  0
  -11.0047   -1.1773  -23.3652 C   0  0  0  0  0  0  0  0  0  0  0  0
   -5.1633   -0.0317  -17.9174 C   0  0  0  0  0  0  0  0  0  0  0  0
   -5.6523   -0.4605  -19.2690 C   0  0  0  0  0  0  0  0  0  0  0  0
   -7.1029   -0.7819  -19.4746 C   0  0  0  0  0  0  0  0  0  0  0  0
   -7.5919   -1.2107  -20.8263 C   0  0  0  0  0  0  0  0  0  0  0  0
   -6.6302   -1.3183  -21.9724 N   0  0  0  0  0  0  0  0  0  0  0  0
   -7.1191   -1.7471  -23.3240 C   0  0  0  0  0  0  0  0  0  0  0  0
   -6.1573   -1.8547  -24.4701 O   0  0  0  0  0  0  0  0  0  0  0  0
   -5.1794   -0.9969  -21.7668 C   0  0  0  0  0  0  0  0  0  0  0  0
   -4.6905   -0.5681  -20.4151 C   0  0  0  0  0  0  0  0  0  0  0  0
 12 13  1  0  0  0
 13 14  1  0  0  0
 14 15  1  0  0  0
 15 16  1  0  0  0
 16 17  1  0  0  0
 17 18  2  0  0  0
 17  1  1  0  0  0
  1  2  1  0  0  0
  2  3  2  0  0  0
  3  4  1  0  0  0
  4  5  2  0  0  0
  5  6  1  0  0  0
  6  7  2  0  0  0
  7  8  1  0  0  0
  8  9  2  0  0  0
  9 10  1  0  0  0
 10 11  2  0  0  0
 16 19  1  0  0  0
 19 20  1  0  0  0
 20 13  1  0  0  0
 11  2  1  0  0  0
 11  6  1  0  0  0
M  END
> <minimizedAffinity>
-6.12538

> <CNNscore>
0.3734592497

> <CNNaffinity>
4.5804438591

> <CNN_VS>
1.7106090784

> <CNNaffinity_variance>
0.1972123533

$$$$
