


 22 25  0  0  0  0  0  0  0  0999 V2000
   -7.3473   -4.1196  -22.8475 C   0  0  0  0  0  0  0  0  0  0  0  0
   -8.5170   -3.2179  -23.1103 C   0  0  0  0  0  0  0  0  0  0  0  0
   -9.7568   -3.7657  -23.7527 C   0  0  0  0  0  0  0  0  0  0  0  0
  -10.9264   -2.8641  -24.0155 C   0  0  0  0  0  0  0  0  0  0  0  0
  -10.8562   -1.4147  -23.6358 C   0  0  0  0  0  0  0  0  0  0  0  0
  -11.8430   -0.2930  -23.7702 C   0  0  0  0  0  0  0  0  0  0  0  0
  -13.2182   -0.3946  -24.3603 O   0  0  0  0  0  0  0  0  0  0  0  0
  -11.2131    0.9481  -23.2108 N   0  0  0  0  0  0  0  0  0  0  0  0
   -9.8369    0.5934  -22.7307 C   0  0  0  0  0  0  0  0  0  0  0  0
   -8.8539    1.5339  -22.0988 O   0  0  0  0  0  0  0  0  0  0  0  0
   -9.6163   -0.8669  -22.9934 N   0  0  0  0  0  0  0  0  0  0  0  0
   -8.4467   -1.7685  -22.7306 C   0  0  0  0  0  0  0  0  0  0  0  0
  -11.8478    2.3055  -23.1433 C   0  0  0  0  0  0  0  0  0  0  0  0
  -12.9541    2.5683  -22.1651 C   0  0  0  0  0  0  0  0  0  0  0  0
  -13.5889    3.9257  -22.0976 N   0  0  0  0  0  0  0  0  0  0  0  0
  -13.1173    5.0203  -23.0084 C   0  0  0  0  0  0  0  0  0  0  0  0
  -12.0110    4.7575  -23.9867 C   0  0  0  0  0  0  0  0  0  0  0  0
  -11.5394    5.8520  -24.8974 C   0  0  0  0  0  0  0  0  0  0  0  0
  -10.4331    5.5892  -25.8756 C   0  0  0  0  0  0  0  0  0  0  0  0
   -9.7984    4.2318  -25.9431 C   0  0  0  0  0  0  0  0  0  0  0  0
  -10.2699    3.1372  -25.0324 C   0  0  0  0  0  0  0  0  0  0  0  0
  -11.3762    3.4001  -24.0541 C   0  0  0  0  0  0  0  0  0  0  0  0
  2  1  1  0  0  0
  2  3  1  0  0  0
  3  4  1  0  0  0
  4  5  1  0  0  0
  5  6  2  0  0  0
  6  7  1  0  0  0
  6  8  1  0  0  0
  8 13  1  0  0  0
 13 14  2  0  0  0
 14 15  1  0  0  0
 15 16  2  0  0  0
 16 17  1  0  0  0
 17 18  2  0  0  0
 18 19  1  0  0  0
 19 20  2  0  0  0
 20 21  1  0  0  0
 21 22  2  0  0  0
  8  9  1  0  0  0
  9 10  2  0  0  0
  9 11  1  0  0  0
 11 12  1  0  0  0
 12  2  1  0  0  0
 11  5  1  0  0  0
 22 13  1  0  0  0
 22 17  1  0  0  0
M  CHG 1   7  -1
M  END
> <minimizedAffinity>
-6.29143

> <CNNscore>
0.6256310344

> <CNNaffinity>
5.3281064034

> <CNN_VS>
3.3334286213

> <CNNaffinity_variance>
0.1079082862

$$$$



 22 25  0  0  0  0  0  0  0  0999 V2000
   -2.5690    0.1278  -25.2402 C   0  0  0  0  0  0  0  0  0  0  0  0
   -3.8610    0.1867  -24.4804 C   0  0  0  0  0  0  0  0  0  0  0  0
   -3.8664   -0.0123  -22.9936 C   0  0  0  0  0  0  0  0  0  0  0  0
   -5.1583    0.0466  -22.2338 C   0  0  0  0  0  0  0  0  0  0  0  0
   -6.4448    0.3044  -22.9606 C   0  0  0  0  0  0  0  0  0  0  0  0
   -7.8623    0.4168  -22.4831 C   0  0  0  0  0  0  0  0  0  0  0  0
   -8.3275    0.2841  -21.0632 O   0  0  0  0  0  0  0  0  0  0  0  0
   -8.7330    0.6852  -23.6747 N   0  0  0  0  0  0  0  0  0  0  0  0
   -7.8536    0.7387  -24.8887 C   0  0  0  0  0  0  0  0  0  0  0  0
   -8.3084    0.9844  -26.2968 O   0  0  0  0  0  0  0  0  0  0  0  0
   -6.4394    0.5033  -24.4474 N   0  0  0  0  0  0  0  0  0  0  0  0
   -5.1475    0.4445  -25.2072 C   0  0  0  0  0  0  0  0  0  0  0  0
  -10.2217    0.8681  -23.6556 C   0  0  0  0  0  0  0  0  0  0  0  0
  -10.8161    2.2127  -23.9533 C   0  0  0  0  0  0  0  0  0  0  0  0
  -12.3048    2.3956  -23.9343 N   0  0  0  0  0  0  0  0  0  0  0  0
  -13.1991    1.2338  -23.6175 C   0  0  0  0  0  0  0  0  0  0  0  0
  -12.6048   -0.1110  -23.3199 C   0  0  0  0  0  0  0  0  0  0  0  0
  -13.4991   -1.2727  -23.0032 C   0  0  0  0  0  0  0  0  0  0  0  0
  -12.9047   -2.6174  -22.7055 C   0  0  0  0  0  0  0  0  0  0  0  0
  -11.4160   -2.8002  -22.7246 C   0  0  0  0  0  0  0  0  0  0  0  0
  -10.5217   -1.6384  -23.0413 C   0  0  0  0  0  0  0  0  0  0  0  0
  -11.1161   -0.2938  -23.3389 C   0  0  0  0  0  0  0  0  0  0  0  0
  2  1  1  0  0  0
  2  3  1  0  0  0
  3  4  1  0  0  0
  4  5  1  0  0  0
  5  6  2  0  0  0
  6  7  1  0  0  0
  6  8  1  0  0  0
  8 13  1  0  0  0
 13 14  2  0  0  0
 14 15  1  0  0  0
 15 16  2  0  0  0
 16 17  1  0  0  0
 17 18  2  0  0  0
 18 19  1  0  0  0
 19 20  2  0  0  0
 20 21  1  0  0  0
 21 22  2  0  0  0
  8  9  1  0  0  0
  9 10  2  0  0  0
  9 11  1  0  0  0
 11 12  1  0  0  0
 12  2  1  0  0  0
 11  5  1  0  0  0
 22 13  1  0  0  0
 22 17  1  0  0  0
M  CHG 1   7  -1
M  END
> <minimizedAffinity>
-5.74328

> <CNNscore>
0.5781950951

> <CNNaffinity>
5.2468247414

> <CNN_VS>
3.0336883068

> <CNNaffinity_variance>
0.1192796826

$$$$



 22 25  0  0  0  0  0  0  0  0999 V2000
   -9.4724   -4.4911  -26.7823 C   0  0  0  0  0  0  0  0  0  0  0  0
   -8.6297   -4.3385  -25.5507 C   0  0  0  0  0  0  0  0  0  0  0  0
   -7.8342   -5.5021  -25.0374 C   0  0  0  0  0  0  0  0  0  0  0  0
   -6.9916   -5.3496  -23.8059 C   0  0  0  0  0  0  0  0  0  0  0  0
   -6.9444   -4.0336  -23.0877 C   0  0  0  0  0  0  0  0  0  0  0  0
   -6.2099   -3.5868  -21.8585 C   0  0  0  0  0  0  0  0  0  0  0  0
   -5.2946   -4.4315  -21.0225 O   0  0  0  0  0  0  0  0  0  0  0  0
   -6.5514   -2.1472  -21.6120 N   0  0  0  0  0  0  0  0  0  0  0  0
   -7.4970   -1.7042  -22.6890 C   0  0  0  0  0  0  0  0  0  0  0  0
   -8.0947   -0.3357  -22.8293 O   0  0  0  0  0  0  0  0  0  0  0  0
   -7.7398   -2.8701  -23.6010 N   0  0  0  0  0  0  0  0  0  0  0  0
   -8.5825   -3.0226  -24.8325 C   0  0  0  0  0  0  0  0  0  0  0  0
   -6.0377   -1.2994  -20.4863 C   0  0  0  0  0  0  0  0  0  0  0  0
   -6.6439   -1.4197  -19.1196 C   0  0  0  0  0  0  0  0  0  0  0  0
   -6.1302   -0.5718  -17.9939 N   0  0  0  0  0  0  0  0  0  0  0  0
   -5.0101    0.3963  -18.2349 C   0  0  0  0  0  0  0  0  0  0  0  0
   -4.4038    0.5166  -19.6017 C   0  0  0  0  0  0  0  0  0  0  0  0
   -3.2837    1.4848  -19.8426 C   0  0  0  0  0  0  0  0  0  0  0  0
   -2.6774    1.6051  -21.2093 C   0  0  0  0  0  0  0  0  0  0  0  0
   -3.1912    0.7573  -22.3350 C   0  0  0  0  0  0  0  0  0  0  0  0
   -4.3113   -0.2109  -22.0941 C   0  0  0  0  0  0  0  0  0  0  0  0
   -4.9175   -0.3312  -20.7274 C   0  0  0  0  0  0  0  0  0  0  0  0
  2  1  1  0  0  0
  2  3  1  0  0  0
  3  4  1  0  0  0
  4  5  1  0  0  0
  5  6  2  0  0  0
  6  7  1  0  0  0
  6  8  1  0  0  0
  8 13  1  0  0  0
 13 14  2  0  0  0
 14 15  1  0  0  0
 15 16  2  0  0  0
 16 17  1  0  0  0
 17 18  2  0  0  0
 18 19  1  0  0  0
 19 20  2  0  0  0
 20 21  1  0  0  0
 21 22  2  0  0  0
  8  9  1  0  0  0
  9 10  2  0  0  0
  9 11  1  0  0  0
 11 12  1  0  0  0
 12  2  1  0  0  0
 11  5  1  0  0  0
 22 13  1  0  0  0
 22 17  1  0  0  0
M  CHG 1   7  -1
M  END
> <minimizedAffinity>
-7.27512

> <CNNscore>
0.5751395226

> <CNNaffinity>
5.3423628807

> <CNN_VS>
3.0726039410

> <CNNaffinity_variance>
0.4767170846

$$$$



 22 25  0  0  0  0  0  0  0  0999 V2000
   -4.9230    3.0277  -21.7037 C   0  0  0  0  0  0  0  0  0  0  0  0
   -5.0439    1.5818  -21.3230 C   0  0  0  0  0  0  0  0  0  0  0  0
   -4.7867    1.1547  -19.9083 C   0  0  0  0  0  0  0  0  0  0  0  0
   -4.9075   -0.2911  -19.5276 C   0  0  0  0  0  0  0  0  0  0  0  0
   -5.2855   -1.3098  -20.5616 C   0  0  0  0  0  0  0  0  0  0  0  0
   -5.4799   -2.7951  -20.4832 C   0  0  0  0  0  0  0  0  0  0  0  0
   -5.3244   -3.6410  -19.2543 O   0  0  0  0  0  0  0  0  0  0  0  0
   -5.8572   -3.2860  -21.8495 N   0  0  0  0  0  0  0  0  0  0  0  0
   -5.8960   -2.1041  -22.7723 C   0  0  0  0  0  0  0  0  0  0  0  0
   -6.2295   -2.1376  -24.2344 O   0  0  0  0  0  0  0  0  0  0  0  0
   -5.5426   -0.8827  -21.9764 N   0  0  0  0  0  0  0  0  0  0  0  0
   -5.4218    0.5631  -22.3570 C   0  0  0  0  0  0  0  0  0  0  0  0
   -6.1452   -4.7089  -22.2267 C   0  0  0  0  0  0  0  0  0  0  0  0
   -5.3788   -5.8256  -21.5820 C   0  0  0  0  0  0  0  0  0  0  0  0
   -5.6668   -7.2485  -21.9592 N   0  0  0  0  0  0  0  0  0  0  0  0
   -6.7211   -7.5548  -22.9812 C   0  0  0  0  0  0  0  0  0  0  0  0
   -7.4876   -6.4381  -23.6260 C   0  0  0  0  0  0  0  0  0  0  0  0
   -8.5419   -6.7445  -24.6480 C   0  0  0  0  0  0  0  0  0  0  0  0
   -9.3082   -5.6278  -25.2928 C   0  0  0  0  0  0  0  0  0  0  0  0
   -9.0203   -4.2049  -24.9155 C   0  0  0  0  0  0  0  0  0  0  0  0
   -7.9659   -3.8986  -23.8935 C   0  0  0  0  0  0  0  0  0  0  0  0
   -7.1996   -5.0152  -23.2488 C   0  0  0  0  0  0  0  0  0  0  0  0
  2  1  1  0  0  0
  2  3  1  0  0  0
  3  4  1  0  0  0
  4  5  1  0  0  0
  5  6  2  0  0  0
  6  7  1  0  0  0
  6  8  1  0  0  0
  8 13  1  0  0  0
 13 14  2  0  0  0
 14 15  1  0  0  0
 15 16  2  0  0  0
 16 17  1  0  0  0
 17 18  2  0  0  0
 18 19  1  0  0  0
 19 20  2  0  0  0
 20 21  1  0  0  0
 21 22  2  0  0  0
  8  9  1  0  0  0
  9 10  2  0  0  0
  9 11  1  0  0  0
 11 12  1  0  0  0
 12  2  1  0  0  0
 11  5  1  0  0  0
 22 13  1  0  0  0
 22 17  1  0  0  0
M  CHG 1   7  -1
M  END
> <minimizedAffinity>
-6.68977

> <CNNscore>
0.5710086823

> <CNNaffinity>
5.3692364693

> <CNN_VS>
3.0658805370

> <CNNaffinity_variance>
0.1439136863

$$$$



 22 25  0  0  0  0  0  0  0  0999 V2000
   -8.6685   -6.7415  -25.6140 C   0  0  0  0  0  0  0  0  0  0  0  0
   -8.5932   -5.4644  -24.8308 C   0  0  0  0  0  0  0  0  0  0  0  0
   -9.5838   -4.3677  -25.0876 C   0  0  0  0  0  0  0  0  0  0  0  0
   -9.5086   -3.0906  -24.3045 C   0  0  0  0  0  0  0  0  0  0  0  0
   -8.4427   -2.9102  -23.2646 C   0  0  0  0  0  0  0  0  0  0  0  0
   -8.1223   -1.7710  -22.3429 C   0  0  0  0  0  0  0  0  0  0  0  0
   -8.8608   -0.4679  -22.2618 O   0  0  0  0  0  0  0  0  0  0  0  0
   -6.9336   -2.1636  -21.5164 N   0  0  0  0  0  0  0  0  0  0  0  0
   -6.5195   -3.5455  -21.9274 C   0  0  0  0  0  0  0  0  0  0  0  0
   -5.3738   -4.3285  -21.3580 O   0  0  0  0  0  0  0  0  0  0  0  0
   -7.4521   -4.0069  -23.0078 N   0  0  0  0  0  0  0  0  0  0  0  0
   -7.5274   -5.2840  -23.7909 C   0  0  0  0  0  0  0  0  0  0  0  0
   -6.2748   -1.3221  -20.4639 C   0  0  0  0  0  0  0  0  0  0  0  0
   -6.7773   -1.3590  -19.0511 C   0  0  0  0  0  0  0  0  0  0  0  0
   -6.1185   -0.5175  -17.9985 N   0  0  0  0  0  0  0  0  0  0  0  0
   -4.9572    0.3609  -18.3588 C   0  0  0  0  0  0  0  0  0  0  0  0
   -4.4547    0.3978  -19.7717 C   0  0  0  0  0  0  0  0  0  0  0  0
   -3.2934    1.2762  -20.1320 C   0  0  0  0  0  0  0  0  0  0  0  0
   -2.7910    1.3131  -21.5448 C   0  0  0  0  0  0  0  0  0  0  0  0
   -3.4498    0.4716  -22.5974 C   0  0  0  0  0  0  0  0  0  0  0  0
   -4.6110   -0.4068  -22.2371 C   0  0  0  0  0  0  0  0  0  0  0  0
   -5.1135   -0.4437  -20.8242 C   0  0  0  0  0  0  0  0  0  0  0  0
  2  1  1  0  0  0
  2  3  1  0  0  0
  3  4  1  0  0  0
  4  5  1  0  0  0
  5  6  2  0  0  0
  6  7  1  0  0  0
  6  8  1  0  0  0
  8 13  1  0  0  0
 13 14  2  0  0  0
 14 15  1  0  0  0
 15 16  2  0  0  0
 16 17  1  0  0  0
 17 18  2  0  0  0
 18 19  1  0  0  0
 19 20  2  0  0  0
 20 21  1  0  0  0
 21 22  2  0  0  0
  8  9  1  0  0  0
  9 10  2  0  0  0
  9 11  1  0  0  0
 11 12  1  0  0  0
 12  2  1  0  0  0
 11  5  1  0  0  0
 22 13  1  0  0  0
 22 17  1  0  0  0
M  CHG 1   7  -1
M  END
> <minimizedAffinity>
-7.32918

> <CNNscore>
0.5539801717

> <CNNaffinity>
5.3616476059

> <CNN_VS>
2.9702465534

> <CNNaffinity_variance>
0.5407377481

$$$$



 22 25  0  0  0  0  0  0  0  0999 V2000
   -2.5957   -0.3894  -25.6908 C   0  0  0  0  0  0  0  0  0  0  0  0
   -3.8044   -0.3648  -24.8028 C   0  0  0  0  0  0  0  0  0  0  0  0
   -3.6740    0.0606  -23.3703 C   0  0  0  0  0  0  0  0  0  0  0  0
   -4.8827    0.0852  -22.4823 C   0  0  0  0  0  0  0  0  0  0  0  0
   -6.2216   -0.3155  -23.0268 C   0  0  0  0  0  0  0  0  0  0  0  0
   -7.5803   -0.3905  -22.3956 C   0  0  0  0  0  0  0  0  0  0  0  0
   -7.9108   -0.0531  -20.9719 O   0  0  0  0  0  0  0  0  0  0  0  0
   -8.5503   -0.8623  -23.4379 N   0  0  0  0  0  0  0  0  0  0  0  0
   -7.7912   -1.0788  -24.7134 C   0  0  0  0  0  0  0  0  0  0  0  0
   -8.3696   -1.5504  -26.0145 O   0  0  0  0  0  0  0  0  0  0  0  0
   -6.3520   -0.7409  -24.4593 N   0  0  0  0  0  0  0  0  0  0  0  0
   -5.1433   -0.7655  -25.3473 C   0  0  0  0  0  0  0  0  0  0  0  0
  -10.0212   -1.0794  -23.2396 C   0  0  0  0  0  0  0  0  0  0  0  0
  -10.5369   -2.4423  -22.8837 C   0  0  0  0  0  0  0  0  0  0  0  0
  -12.0078   -2.6594  -22.6854 N   0  0  0  0  0  0  0  0  0  0  0  0
  -12.9630   -1.5137  -22.8430 C   0  0  0  0  0  0  0  0  0  0  0  0
  -12.4473   -0.1508  -23.1988 C   0  0  0  0  0  0  0  0  0  0  0  0
  -13.4025    0.9950  -23.3564 C   0  0  0  0  0  0  0  0  0  0  0  0
  -12.8868    2.3578  -23.7122 C   0  0  0  0  0  0  0  0  0  0  0  0
  -11.4160    2.5749  -23.9105 C   0  0  0  0  0  0  0  0  0  0  0  0
  -10.4607    1.4292  -23.7530 C   0  0  0  0  0  0  0  0  0  0  0  0
  -10.9764    0.0664  -23.3971 C   0  0  0  0  0  0  0  0  0  0  0  0
  2  1  1  0  0  0
  2  3  1  0  0  0
  3  4  1  0  0  0
  4  5  1  0  0  0
  5  6  2  0  0  0
  6  7  1  0  0  0
  6  8  1  0  0  0
  8 13  1  0  0  0
 13 14  2  0  0  0
 14 15  1  0  0  0
 15 16  2  0  0  0
 16 17  1  0  0  0
 17 18  2  0  0  0
 18 19  1  0  0  0
 19 20  2  0  0  0
 20 21  1  0  0  0
 21 22  2  0  0  0
  8  9  1  0  0  0
  9 10  2  0  0  0
  9 11  1  0  0  0
 11 12  1  0  0  0
 12  2  1  0  0  0
 11  5  1  0  0  0
 22 13  1  0  0  0
 22 17  1  0  0  0
M  CHG 1   7  -1
M  END
> <minimizedAffinity>
-6.21358

> <CNNscore>
0.4221726060

> <CNNaffinity>
5.0992732048

> <CNN_VS>
2.1527733803

> <CNNaffinity_variance>
0.0641026199

$$$$



 22 25  0  0  0  0  0  0  0  0999 V2000
   -2.6980    1.9122  -19.6946 C   0  0  0  0  0  0  0  0  0  0  0  0
   -3.7648    1.5615  -20.6892 C   0  0  0  0  0  0  0  0  0  0  0  0
   -3.6486    2.0289  -22.1098 C   0  0  0  0  0  0  0  0  0  0  0  0
   -4.7153    1.6782  -23.1043 C   0  0  0  0  0  0  0  0  0  0  0  0
   -5.8982    0.8602  -22.6783 C   0  0  0  0  0  0  0  0  0  0  0  0
   -7.0976    0.3628  -23.4294 C   0  0  0  0  0  0  0  0  0  0  0  0
   -7.3884    0.5988  -24.8819 O   0  0  0  0  0  0  0  0  0  0  0  0
   -7.9550   -0.4119  -22.4731 N   0  0  0  0  0  0  0  0  0  0  0  0
   -7.2856   -0.3934  -21.1309 C   0  0  0  0  0  0  0  0  0  0  0  0
   -7.7974   -1.0463  -19.8812 O   0  0  0  0  0  0  0  0  0  0  0  0
   -6.0144    0.3928  -21.2577 N   0  0  0  0  0  0  0  0  0  0  0  0
   -4.9477    0.7435  -20.2631 C   0  0  0  0  0  0  0  0  0  0  0  0
   -9.2538   -1.0867  -22.8013 C   0  0  0  0  0  0  0  0  0  0  0  0
   -9.3228   -2.5830  -22.8797 C   0  0  0  0  0  0  0  0  0  0  0  0
  -10.6216   -3.2578  -23.2079 N   0  0  0  0  0  0  0  0  0  0  0  0
  -11.8515   -2.4362  -23.4577 C   0  0  0  0  0  0  0  0  0  0  0  0
  -11.7826   -0.9398  -23.3794 C   0  0  0  0  0  0  0  0  0  0  0  0
  -13.0124   -0.1182  -23.6292 C   0  0  0  0  0  0  0  0  0  0  0  0
  -12.9434    1.3781  -23.5509 C   0  0  0  0  0  0  0  0  0  0  0  0
  -11.6446    2.0529  -23.2226 C   0  0  0  0  0  0  0  0  0  0  0  0
  -10.4147    1.2313  -22.9728 C   0  0  0  0  0  0  0  0  0  0  0  0
  -10.4837   -0.2650  -23.0512 C   0  0  0  0  0  0  0  0  0  0  0  0
  2  1  1  0  0  0
  2  3  1  0  0  0
  3  4  1  0  0  0
  4  5  1  0  0  0
  5  6  2  0  0  0
  6  7  1  0  0  0
  6  8  1  0  0  0
  8 13  1  0  0  0
 13 14  2  0  0  0
 14 15  1  0  0  0
 15 16  2  0  0  0
 16 17  1  0  0  0
 17 18  2  0  0  0
 18 19  1  0  0  0
 19 20  2  0  0  0
 20 21  1  0  0  0
 21 22  2  0  0  0
  8  9  1  0  0  0
  9 10  2  0  0  0
  9 11  1  0  0  0
 11 12  1  0  0  0
 12  2  1  0  0  0
 11  5  1  0  0  0
 22 13  1  0  0  0
 22 17  1  0  0  0
M  CHG 1   7  -1
M  END
> <minimizedAffinity>
-6.48453

> <CNNscore>
0.3843505085

> <CNNaffinity>
5.0719008446

> <CNN_VS>
1.9493876696

> <CNNaffinity_variance>
0.1071278900

$$$$



 22 25  0  0  0  0  0  0  0  0999 V2000
   -1.7331    2.3993  -21.1011 C   0  0  0  0  0  0  0  0  0  0  0  0
   -3.0052    1.6383  -20.8712 C   0  0  0  0  0  0  0  0  0  0  0  0
   -3.4668    1.3541  -19.4726 C   0  0  0  0  0  0  0  0  0  0  0  0
   -4.7388    0.5932  -19.2427 C   0  0  0  0  0  0  0  0  0  0  0  0
   -5.5493    0.1165  -20.4114 C   0  0  0  0  0  0  0  0  0  0  0  0
   -6.8354   -0.6509  -20.4948 C   0  0  0  0  0  0  0  0  0  0  0  0
   -7.6460   -1.1420  -19.3321 O   0  0  0  0  0  0  0  0  0  0  0  0
   -7.1687   -0.8409  -21.9448 N   0  0  0  0  0  0  0  0  0  0  0  0
   -6.0885   -0.1910  -22.7577 C   0  0  0  0  0  0  0  0  0  0  0  0
   -6.0210   -0.1415  -24.2554 O   0  0  0  0  0  0  0  0  0  0  0  0
   -5.0876    0.4008  -21.8100 N   0  0  0  0  0  0  0  0  0  0  0  0
   -3.8156    1.1616  -22.0399 C   0  0  0  0  0  0  0  0  0  0  0  0
   -8.3710   -1.5555  -22.4869 C   0  0  0  0  0  0  0  0  0  0  0  0
   -8.3187   -3.0350  -22.7281 C   0  0  0  0  0  0  0  0  0  0  0  0
   -9.5211   -3.7495  -23.2701 N   0  0  0  0  0  0  0  0  0  0  0  0
  -10.7757   -2.9845  -23.5710 C   0  0  0  0  0  0  0  0  0  0  0  0
  -10.8281   -1.5049  -23.3298 C   0  0  0  0  0  0  0  0  0  0  0  0
  -12.0828   -0.7399  -23.6306 C   0  0  0  0  0  0  0  0  0  0  0  0
  -12.1351    0.7396  -23.3895 C   0  0  0  0  0  0  0  0  0  0  0  0
  -10.9327    1.4541  -22.8474 C   0  0  0  0  0  0  0  0  0  0  0  0
   -9.6781    0.6891  -22.5466 C   0  0  0  0  0  0  0  0  0  0  0  0
   -9.6258   -0.7904  -22.7877 C   0  0  0  0  0  0  0  0  0  0  0  0
  2  1  1  0  0  0
  2  3  1  0  0  0
  3  4  1  0  0  0
  4  5  1  0  0  0
  5  6  2  0  0  0
  6  7  1  0  0  0
  6  8  1  0  0  0
  8 13  1  0  0  0
 13 14  2  0  0  0
 14 15  1  0  0  0
 15 16  2  0  0  0
 16 17  1  0  0  0
 17 18  2  0  0  0
 18 19  1  0  0  0
 19 20  2  0  0  0
 20 21  1  0  0  0
 21 22  2  0  0  0
  8  9  1  0  0  0
  9 10  2  0  0  0
  9 11  1  0  0  0
 11 12  1  0  0  0
 12  2  1  0  0  0
 11  5  1  0  0  0
 22 13  1  0  0  0
 22 17  1  0  0  0
M  CHG 1   7  -1
M  END
> <minimizedAffinity>
-6.65678

> <CNNscore>
0.3668469489

> <CNNaffinity>
5.0805859566

> <CNN_VS>
1.8637974262

> <CNNaffinity_variance>
0.1958337277

$$$$



 22 25  0  0  0  0  0  0  0  0999 V2000
  -12.2644    3.7529  -24.1078 C   0  0  0  0  0  0  0  0  0  0  0  0
  -12.0500    2.2853  -23.8834 C   0  0  0  0  0  0  0  0  0  0  0  0
  -13.2056    1.4083  -23.5022 C   0  0  0  0  0  0  0  0  0  0  0  0
  -12.9913   -0.0592  -23.2778 C   0  0  0  0  0  0  0  0  0  0  0  0
  -11.6214   -0.6497  -23.4345 C   0  0  0  0  0  0  0  0  0  0  0  0
  -11.1086   -2.0508  -23.2795 C   0  0  0  0  0  0  0  0  0  0  0  0
  -11.9250   -3.2521  -22.9049 O   0  0  0  0  0  0  0  0  0  0  0  0
   -9.6360   -2.0397  -23.5649 N   0  0  0  0  0  0  0  0  0  0  0  0
   -9.2388   -0.6317  -23.8962 C   0  0  0  0  0  0  0  0  0  0  0  0
   -7.8570   -0.1647  -24.2466 O   0  0  0  0  0  0  0  0  0  0  0  0
  -10.4658    0.2274  -23.8156 N   0  0  0  0  0  0  0  0  0  0  0  0
  -10.6801    1.6949  -24.0401 C   0  0  0  0  0  0  0  0  0  0  0  0
   -8.7213   -3.2279  -23.5258 C   0  0  0  0  0  0  0  0  0  0  0  0
   -7.5814   -3.2650  -22.5516 C   0  0  0  0  0  0  0  0  0  0  0  0
   -6.6667   -4.4532  -22.5125 N   0  0  0  0  0  0  0  0  0  0  0  0
   -6.8920   -5.6043  -23.4476 C   0  0  0  0  0  0  0  0  0  0  0  0
   -8.0320   -5.5671  -24.4218 C   0  0  0  0  0  0  0  0  0  0  0  0
   -8.2574   -6.7182  -25.3568 C   0  0  0  0  0  0  0  0  0  0  0  0
   -9.3974   -6.6810  -26.3309 C   0  0  0  0  0  0  0  0  0  0  0  0
  -10.3120   -5.4928  -26.3700 C   0  0  0  0  0  0  0  0  0  0  0  0
  -10.0867   -4.3418  -25.4350 C   0  0  0  0  0  0  0  0  0  0  0  0
   -8.9467   -4.3789  -24.4609 C   0  0  0  0  0  0  0  0  0  0  0  0
  2  1  1  0  0  0
  2  3  1  0  0  0
  3  4  1  0  0  0
  4  5  1  0  0  0
  5  6  2  0  0  0
  6  7  1  0  0  0
  6  8  1  0  0  0
  8 13  1  0  0  0
 13 14  2  0  0  0
 14 15  1  0  0  0
 15 16  2  0  0  0
 16 17  1  0  0  0
 17 18  2  0  0  0
 18 19  1  0  0  0
 19 20  2  0  0  0
 20 21  1  0  0  0
 21 22  2  0  0  0
  8  9  1  0  0  0
  9 10  2  0  0  0
  9 11  1  0  0  0
 11 12  1  0  0  0
 12  2  1  0  0  0
 11  5  1  0  0  0
 22 13  1  0  0  0
 22 17  1  0  0  0
M  CHG 1   7  -1
M  END
> <minimizedAffinity>
-6.90046

> <CNNscore>
0.3465129733

> <CNNaffinity>
5.1682476997

> <CNN_VS>
1.7908648252

> <CNNaffinity_variance>
0.2047839612

$$$$
