


 31 35  0  0  0  0  0  0  0  0999 V2000
    9.0919   -0.9509   23.7051 C   0  0  0  0  0  0  0  0  0  0  0  0
    7.9443   -1.3455   22.8233 C   0  0  0  0  0  0  0  0  0  0  0  0
    7.5692   -0.2527   21.8666 C   0  0  0  0  0  0  0  0  0  0  0  0
    6.4204   -0.7396   21.0341 N   0  0  0  0  0  0  0  0  0  0  0  0
    6.0855   -2.1333   21.4763 C   0  0  0  0  0  0  0  0  0  0  0  0
    4.9994   -3.0003   20.9117 O   0  0  0  0  0  0  0  0  0  0  0  0
    7.0273   -2.5078   22.5820 C   0  0  0  0  0  0  0  0  0  0  0  0
    6.0430   -3.5830   22.2288 C   0  0  0  0  0  0  0  0  0  0  0  0
    6.0641   -4.8902   22.9641 N   0  0  0  0  0  0  0  0  0  0  0  0
    7.0696   -5.1222   24.0528 C   0  0  0  0  0  0  0  0  0  0  0  0
    7.0907   -6.4294   24.7882 O   0  0  0  0  0  0  0  0  0  0  0  0
    8.0540   -4.0469   24.4061 C   0  0  0  0  0  0  0  0  0  0  0  0
    9.0595   -4.2788   25.4948 C   0  0  0  0  0  0  0  0  0  0  0  0
   10.0438   -3.2036   25.8480 C   0  0  0  0  0  0  0  0  0  0  0  0
   10.0227   -1.8964   25.1126 C   0  0  0  0  0  0  0  0  0  0  0  0
   11.0071   -0.8211   25.4660 F   0  0  0  0  0  0  0  0  0  0  0  0
    9.0172   -1.6644   24.0240 C   0  0  0  0  0  0  0  0  0  0  0  0
    8.0329   -2.7397   23.6707 C   0  0  0  0  0  0  0  0  0  0  0  0
    5.7280    0.0317   19.9499 C   0  0  0  0  0  0  0  0  0  0  0  0
    6.2238   -0.0512   18.5367 C   0  0  0  0  0  0  0  0  0  0  0  0
    5.5315    0.7201   17.4524 N   0  0  0  0  0  0  0  0  0  0  0  0
    4.3432    1.5744   17.7814 C   0  0  0  0  0  0  0  0  0  0  0  0
    3.8473    1.6573   19.1947 C   0  0  0  0  0  0  0  0  0  0  0  0
    2.6590    2.5116   19.5236 C   0  0  0  0  0  0  0  0  0  0  0  0
    2.1632    2.5945   20.9369 C   0  0  0  0  0  0  0  0  0  0  0  0
    2.8557    1.8232   22.0211 C   0  0  0  0  0  0  0  0  0  0  0  0
    4.0439    0.9689   21.6921 C   0  0  0  0  0  0  0  0  0  0  0  0
    4.5397    0.8860   20.2789 C   0  0  0  0  0  0  0  0  0  0  0  0
    5.0797   -5.9655   22.6108 C   0  0  0  0  0  0  0  0  0  0  0  0
    3.8290   -6.1333   23.4218 C   0  0  0  0  0  0  0  0  0  0  0  0
    2.5784   -6.3010   24.2327 N   0  0  0  0  0  0  0  0  0  0  0  0
  2  1  1  0  0  0
  2  3  1  0  0  0
  3  4  1  0  0  0
  4 19  1  0  0  0
 19 20  2  0  0  0
 20 21  1  0  0  0
 21 22  2  0  0  0
 22 23  1  0  0  0
 23 24  2  0  0  0
 24 25  1  0  0  0
 25 26  2  0  0  0
 26 27  1  0  0  0
 27 28  2  0  0  0
  4  5  1  0  0  0
  5  6  2  0  0  0
  5  7  1  0  0  0
  7  8  1  0  0  0
  8  9  1  0  0  0
  9 29  1  0  0  0
 29 30  1  0  0  0
 30 31  3  0  0  0
  9 10  1  0  0  0
 10 11  2  0  0  0
 10 12  1  0  0  0
 12 13  2  0  0  0
 13 14  1  0  0  0
 14 15  2  0  0  0
 15 16  1  0  0  0
 15 17  1  0  0  0
 17 18  2  0  0  0
  7  2  1  0  0  0
 18 12  1  0  0  0
 28 19  1  0  0  0
 18  7  1  0  0  0
 28 23  1  0  0  0
M  END
> <minimizedAffinity>
-7.74503

> <CNNscore>
0.6811409593

> <CNNaffinity>
6.3343582153

> <CNN_VS>
4.3145909309

> <CNNaffinity_variance>
0.0255661849

$$$$



 31 35  0  0  0  0  0  0  0  0999 V2000
    7.5354   -3.3030   23.4440 C   0  0  0  0  0  0  0  0  0  0  0  0
    7.7202   -2.0176   22.6932 C   0  0  0  0  0  0  0  0  0  0  0  0
    6.6077   -1.7718   21.7176 C   0  0  0  0  0  0  0  0  0  0  0  0
    6.8809   -0.4718   21.0208 N   0  0  0  0  0  0  0  0  0  0  0  0
    8.1624    0.0857   21.5658 C   0  0  0  0  0  0  0  0  0  0  0  0
    8.8112    1.3727   21.1502 O   0  0  0  0  0  0  0  0  0  0  0  0
    8.6811   -0.8696   22.5994 C   0  0  0  0  0  0  0  0  0  0  0  0
    9.5471    0.3381   22.3957 C   0  0  0  0  0  0  0  0  0  0  0  0
   10.8057    0.5020   23.1952 N   0  0  0  0  0  0  0  0  0  0  0  0
   11.1983   -0.5418   24.1983 C   0  0  0  0  0  0  0  0  0  0  0  0
   12.4569   -0.3780   24.9977 O   0  0  0  0  0  0  0  0  0  0  0  0
   10.3323   -1.7496   24.4020 C   0  0  0  0  0  0  0  0  0  0  0  0
   10.7250   -2.7934   25.4051 C   0  0  0  0  0  0  0  0  0  0  0  0
    9.8590   -4.0011   25.6087 C   0  0  0  0  0  0  0  0  0  0  0  0
    8.6004   -4.1650   24.8093 C   0  0  0  0  0  0  0  0  0  0  0  0
    7.7344   -5.3728   25.0130 F   0  0  0  0  0  0  0  0  0  0  0  0
    8.2078   -3.1212   23.8062 C   0  0  0  0  0  0  0  0  0  0  0  0
    9.0737   -1.9135   23.6026 C   0  0  0  0  0  0  0  0  0  0  0  0
    6.0234    0.1597   19.9646 C   0  0  0  0  0  0  0  0  0  0  0  0
    6.4106    0.0501   18.5196 C   0  0  0  0  0  0  0  0  0  0  0  0
    5.5530    0.6816   17.4634 N   0  0  0  0  0  0  0  0  0  0  0  0
    4.3082    1.4228   17.8521 C   0  0  0  0  0  0  0  0  0  0  0  0
    3.9210    1.5324   19.2971 C   0  0  0  0  0  0  0  0  0  0  0  0
    2.6761    2.2736   19.6858 C   0  0  0  0  0  0  0  0  0  0  0  0
    2.2889    2.3831   21.1309 C   0  0  0  0  0  0  0  0  0  0  0  0
    3.1465    1.7516   22.1871 C   0  0  0  0  0  0  0  0  0  0  0  0
    4.3913    1.0105   21.7983 C   0  0  0  0  0  0  0  0  0  0  0  0
    4.7786    0.9008   20.3534 C   0  0  0  0  0  0  0  0  0  0  0  0
   11.6717    1.7098   22.9914 C   0  0  0  0  0  0  0  0  0  0  0  0
   11.0563    3.0774   22.9615 C   0  0  0  0  0  0  0  0  0  0  0  0
   10.4410    4.4450   22.9315 N   0  0  0  0  0  0  0  0  0  0  0  0
  2  1  1  0  0  0
  2  3  1  0  0  0
  3  4  1  0  0  0
  4 19  1  0  0  0
 19 20  2  0  0  0
 20 21  1  0  0  0
 21 22  2  0  0  0
 22 23  1  0  0  0
 23 24  2  0  0  0
 24 25  1  0  0  0
 25 26  2  0  0  0
 26 27  1  0  0  0
 27 28  2  0  0  0
  4  5  1  0  0  0
  5  6  2  0  0  0
  5  7  1  0  0  0
  7  8  1  0  0  0
  8  9  1  0  0  0
  9 29  1  0  0  0
 29 30  1  0  0  0
 30 31  3  0  0  0
  9 10  1  0  0  0
 10 11  2  0  0  0
 10 12  1  0  0  0
 12 13  2  0  0  0
 13 14  1  0  0  0
 14 15  2  0  0  0
 15 16  1  0  0  0
 15 17  1  0  0  0
 17 18  2  0  0  0
  7  2  1  0  0  0
 18 12  1  0  0  0
 28 19  1  0  0  0
 18  7  1  0  0  0
 28 23  1  0  0  0
M  END
> <minimizedAffinity>
-8.91638

> <CNNscore>
0.5722495914

> <CNNaffinity>
6.3775658607

> <CNN_VS>
3.6495594978

> <CNNaffinity_variance>
0.0981280804

$$$$



 31 35  0  0  0  0  0  0  0  0999 V2000
   10.9669   -3.3687   26.0265 C   0  0  0  0  0  0  0  0  0  0  0  0
    9.5864   -2.9131   25.6568 C   0  0  0  0  0  0  0  0  0  0  0  0
    8.5292   -3.8343   26.1894 C   0  0  0  0  0  0  0  0  0  0  0  0
    7.1927   -3.2976   25.7702 N   0  0  0  0  0  0  0  0  0  0  0  0
    7.4240   -2.0447   24.9784 C   0  0  0  0  0  0  0  0  0  0  0  0
    6.3622   -1.1812   24.3645 O   0  0  0  0  0  0  0  0  0  0  0  0
    8.9034   -1.8071   24.9083 C   0  0  0  0  0  0  0  0  0  0  0  0
    8.0847   -0.7709   24.1971 C   0  0  0  0  0  0  0  0  0  0  0  0
    8.7621    0.3721   23.5008 N   0  0  0  0  0  0  0  0  0  0  0  0
   10.2582    0.4788   23.5158 C   0  0  0  0  0  0  0  0  0  0  0  0
   10.9355    1.6218   22.8195 O   0  0  0  0  0  0  0  0  0  0  0  0
   11.0769   -0.5574   24.2270 C   0  0  0  0  0  0  0  0  0  0  0  0
   12.5730   -0.4507   24.2420 C   0  0  0  0  0  0  0  0  0  0  0  0
   13.3917   -1.4869   24.9532 C   0  0  0  0  0  0  0  0  0  0  0  0
   12.7143   -2.6299   25.6495 C   0  0  0  0  0  0  0  0  0  0  0  0
   13.5331   -3.6662   26.3608 F   0  0  0  0  0  0  0  0  0  0  0  0
   11.2182   -2.7366   25.6346 C   0  0  0  0  0  0  0  0  0  0  0  0
   10.3995   -1.7004   24.9233 C   0  0  0  0  0  0  0  0  0  0  0  0
    5.8591   -3.9068   26.0870 C   0  0  0  0  0  0  0  0  0  0  0  0
    5.1027   -4.6495   25.0259 C   0  0  0  0  0  0  0  0  0  0  0  0
    3.7692   -5.2587   25.3427 N   0  0  0  0  0  0  0  0  0  0  0  0
    3.1920   -5.1251   26.7207 C   0  0  0  0  0  0  0  0  0  0  0  0
    3.9484   -4.3823   27.7819 C   0  0  0  0  0  0  0  0  0  0  0  0
    3.3711   -4.2487   29.1600 C   0  0  0  0  0  0  0  0  0  0  0  0
    4.1276   -3.5059   30.2211 C   0  0  0  0  0  0  0  0  0  0  0  0
    5.4612   -2.8968   29.9042 C   0  0  0  0  0  0  0  0  0  0  0  0
    6.0383   -3.0304   28.5262 C   0  0  0  0  0  0  0  0  0  0  0  0
    5.2820   -3.7731   27.4651 C   0  0  0  0  0  0  0  0  0  0  0  0
    7.9433    1.4084   22.7895 C   0  0  0  0  0  0  0  0  0  0  0  0
    7.4445    1.1459   21.3995 C   0  0  0  0  0  0  0  0  0  0  0  0
    6.9458    0.8833   20.0094 N   0  0  0  0  0  0  0  0  0  0  0  0
  2  1  1  0  0  0
  2  3  1  0  0  0
  3  4  1  0  0  0
  4 19  1  0  0  0
 19 20  2  0  0  0
 20 21  1  0  0  0
 21 22  2  0  0  0
 22 23  1  0  0  0
 23 24  2  0  0  0
 24 25  1  0  0  0
 25 26  2  0  0  0
 26 27  1  0  0  0
 27 28  2  0  0  0
  4  5  1  0  0  0
  5  6  2  0  0  0
  5  7  1  0  0  0
  7  8  1  0  0  0
  8  9  1  0  0  0
  9 29  1  0  0  0
 29 30  1  0  0  0
 30 31  3  0  0  0
  9 10  1  0  0  0
 10 11  2  0  0  0
 10 12  1  0  0  0
 12 13  2  0  0  0
 13 14  1  0  0  0
 14 15  2  0  0  0
 15 16  1  0  0  0
 15 17  1  0  0  0
 17 18  2  0  0  0
  7  2  1  0  0  0
 18 12  1  0  0  0
 28 19  1  0  0  0
 18  7  1  0  0  0
 28 23  1  0  0  0
M  END
> <minimizedAffinity>
-7.83514

> <CNNscore>
0.5639213324

> <CNNaffinity>
6.5048842430

> <CNN_VS>
3.6682429314

> <CNNaffinity_variance>
0.1701734364

$$$$



 31 35  0  0  0  0  0  0  0  0999 V2000
   10.4606    0.3005   22.6828 C   0  0  0  0  0  0  0  0  0  0  0  0
    9.1384   -0.2674   22.2591 C   0  0  0  0  0  0  0  0  0  0  0  0
    8.4361    0.6190   21.2737 C   0  0  0  0  0  0  0  0  0  0  0  0
    7.1328   -0.0301   20.9132 N   0  0  0  0  0  0  0  0  0  0  0  0
    7.0296   -1.3176   21.6759 C   0  0  0  0  0  0  0  0  0  0  0  0
    5.8873   -2.2881   21.6170 O   0  0  0  0  0  0  0  0  0  0  0  0
    8.2692   -1.4643   22.5077 C   0  0  0  0  0  0  0  0  0  0  0  0
    7.2979   -2.5978   22.6551 C   0  0  0  0  0  0  0  0  0  0  0  0
    7.6129   -3.7407   23.5741 N   0  0  0  0  0  0  0  0  0  0  0  0
    8.8991   -3.7500   24.3458 C   0  0  0  0  0  0  0  0  0  0  0  0
    9.2141   -4.8929   25.2648 O   0  0  0  0  0  0  0  0  0  0  0  0
    9.8704   -2.6164   24.1985 C   0  0  0  0  0  0  0  0  0  0  0  0
   11.1566   -2.6257   24.9702 C   0  0  0  0  0  0  0  0  0  0  0  0
   12.1278   -1.4922   24.8228 C   0  0  0  0  0  0  0  0  0  0  0  0
   11.8128   -0.3493   23.9038 C   0  0  0  0  0  0  0  0  0  0  0  0
   12.7842    0.7843   23.7565 F   0  0  0  0  0  0  0  0  0  0  0  0
   10.5267   -0.3400   23.1321 C   0  0  0  0  0  0  0  0  0  0  0  0
    9.5554   -1.4735   23.2794 C   0  0  0  0  0  0  0  0  0  0  0  0
    6.1119    0.5130   19.9578 C   0  0  0  0  0  0  0  0  0  0  0  0
    6.0967    0.0476   18.5320 C   0  0  0  0  0  0  0  0  0  0  0  0
    5.0758    0.5907   17.5766 N   0  0  0  0  0  0  0  0  0  0  0  0
    4.0700    1.5991   18.0471 C   0  0  0  0  0  0  0  0  0  0  0  0
    4.0851    2.0645   19.4730 C   0  0  0  0  0  0  0  0  0  0  0  0
    3.0792    3.0729   19.9435 C   0  0  0  0  0  0  0  0  0  0  0  0
    3.0944    3.5382   21.3695 C   0  0  0  0  0  0  0  0  0  0  0  0
    4.1153    2.9952   22.3248 C   0  0  0  0  0  0  0  0  0  0  0  0
    5.1212    1.9868   21.8542 C   0  0  0  0  0  0  0  0  0  0  0  0
    5.1061    1.5214   20.4284 C   0  0  0  0  0  0  0  0  0  0  0  0
    6.6416   -4.8743   23.7214 C   0  0  0  0  0  0  0  0  0  0  0  0
    6.1437   -5.5981   22.5057 C   0  0  0  0  0  0  0  0  0  0  0  0
    5.6458   -6.3219   21.2899 N   0  0  0  0  0  0  0  0  0  0  0  0
  2  1  1  0  0  0
  2  3  1  0  0  0
  3  4  1  0  0  0
  4 19  1  0  0  0
 19 20  2  0  0  0
 20 21  1  0  0  0
 21 22  2  0  0  0
 22 23  1  0  0  0
 23 24  2  0  0  0
 24 25  1  0  0  0
 25 26  2  0  0  0
 26 27  1  0  0  0
 27 28  2  0  0  0
  4  5  1  0  0  0
  5  6  2  0  0  0
  5  7  1  0  0  0
  7  8  1  0  0  0
  8  9  1  0  0  0
  9 29  1  0  0  0
 29 30  1  0  0  0
 30 31  3  0  0  0
  9 10  1  0  0  0
 10 11  2  0  0  0
 10 12  1  0  0  0
 12 13  2  0  0  0
 13 14  1  0  0  0
 14 15  2  0  0  0
 15 16  1  0  0  0
 15 17  1  0  0  0
 17 18  2  0  0  0
  7  2  1  0  0  0
 18 12  1  0  0  0
 28 19  1  0  0  0
 18  7  1  0  0  0
 28 23  1  0  0  0
M  END
> <minimizedAffinity>
-8.76388

> <CNNscore>
0.4955558479

> <CNNaffinity>
6.4079957008

> <CNN_VS>
3.1755197048

> <CNNaffinity_variance>
0.0259717945

$$$$



 31 35  0  0  0  0  0  0  0  0999 V2000
    6.3693   -2.9007   28.4094 C   0  0  0  0  0  0  0  0  0  0  0  0
    6.6342   -3.2108   26.9658 C   0  0  0  0  0  0  0  0  0  0  0  0
    7.8139   -2.4511   26.4353 C   0  0  0  0  0  0  0  0  0  0  0  0
    7.9969   -2.8263   24.9946 N   0  0  0  0  0  0  0  0  0  0  0  0
    6.9304   -3.8178   24.6347 C   0  0  0  0  0  0  0  0  0  0  0  0
    6.7395   -4.4590   23.2922 O   0  0  0  0  0  0  0  0  0  0  0  0
    6.0882   -4.0554   25.8530 C   0  0  0  0  0  0  0  0  0  0  0  0
    5.6562   -4.8406   24.6502 C   0  0  0  0  0  0  0  0  0  0  0  0
    4.4754   -5.7612   24.7399 N   0  0  0  0  0  0  0  0  0  0  0  0
    3.7265   -5.8966   26.0325 C   0  0  0  0  0  0  0  0  0  0  0  0
    2.5456   -6.8172   26.1222 O   0  0  0  0  0  0  0  0  0  0  0  0
    4.1584   -5.1114   27.2354 C   0  0  0  0  0  0  0  0  0  0  0  0
    3.4095   -5.2468   28.5279 C   0  0  0  0  0  0  0  0  0  0  0  0
    3.8414   -4.4616   29.7308 C   0  0  0  0  0  0  0  0  0  0  0  0
    5.0223   -3.5410   29.6410 C   0  0  0  0  0  0  0  0  0  0  0  0
    5.4542   -2.7558   30.8440 F   0  0  0  0  0  0  0  0  0  0  0  0
    5.7712   -3.4056   28.3485 C   0  0  0  0  0  0  0  0  0  0  0  0
    5.3393   -4.1908   27.1457 C   0  0  0  0  0  0  0  0  0  0  0  0
    9.0598   -2.3020   24.0751 C   0  0  0  0  0  0  0  0  0  0  0  0
    8.6833   -1.7430   22.7351 C   0  0  0  0  0  0  0  0  0  0  0  0
    9.7462   -1.2188   21.8157 N   0  0  0  0  0  0  0  0  0  0  0  0
   11.1856   -1.2536   22.2363 C   0  0  0  0  0  0  0  0  0  0  0  0
   11.5621   -1.8126   23.5764 C   0  0  0  0  0  0  0  0  0  0  0  0
   13.0016   -1.8474   23.9970 C   0  0  0  0  0  0  0  0  0  0  0  0
   13.3779   -2.4065   25.3370 C   0  0  0  0  0  0  0  0  0  0  0  0
   12.3150   -2.9307   26.2564 C   0  0  0  0  0  0  0  0  0  0  0  0
   10.8757   -2.8959   25.8358 C   0  0  0  0  0  0  0  0  0  0  0  0
   10.4992   -2.3369   24.4958 C   0  0  0  0  0  0  0  0  0  0  0  0
    4.0435   -6.5464   23.5370 C   0  0  0  0  0  0  0  0  0  0  0  0
    2.6167   -6.4903   23.0774 C   0  0  0  0  0  0  0  0  0  0  0  0
    1.1900   -6.4341   22.6177 N   0  0  0  0  0  0  0  0  0  0  0  0
  2  1  1  0  0  0
  2  3  1  0  0  0
  3  4  1  0  0  0
  4 19  1  0  0  0
 19 20  2  0  0  0
 20 21  1  0  0  0
 21 22  2  0  0  0
 22 23  1  0  0  0
 23 24  2  0  0  0
 24 25  1  0  0  0
 25 26  2  0  0  0
 26 27  1  0  0  0
 27 28  2  0  0  0
  4  5  1  0  0  0
  5  6  2  0  0  0
  5  7  1  0  0  0
  7  8  1  0  0  0
  8  9  1  0  0  0
  9 29  1  0  0  0
 29 30  1  0  0  0
 30 31  3  0  0  0
  9 10  1  0  0  0
 10 11  2  0  0  0
 10 12  1  0  0  0
 12 13  2  0  0  0
 13 14  1  0  0  0
 14 15  2  0  0  0
 15 16  1  0  0  0
 15 17  1  0  0  0
 17 18  2  0  0  0
  7  2  1  0  0  0
 18 12  1  0  0  0
 28 19  1  0  0  0
 18  7  1  0  0  0
 28 23  1  0  0  0
M  END
> <minimizedAffinity>
-7.42264

> <CNNscore>
0.4374615550

> <CNNaffinity>
6.1675076485

> <CNN_VS>
2.6980473995

> <CNNaffinity_variance>
0.1828956604

$$$$



 31 35  0  0  0  0  0  0  0  0999 V2000
    4.6783    2.5463   25.1964 C   0  0  0  0  0  0  0  0  0  0  0  0
    5.5755    2.2541   24.0302 C   0  0  0  0  0  0  0  0  0  0  0  0
    7.0225    2.2360   24.4253 C   0  0  0  0  0  0  0  0  0  0  0  0
    7.8339    1.9377   23.1995 N   0  0  0  0  0  0  0  0  0  0  0  0
    6.8885    1.7714   22.0469 C   0  0  0  0  0  0  0  0  0  0  0  0
    7.2716    1.4636   20.6297 O   0  0  0  0  0  0  0  0  0  0  0  0
    5.4927    1.9669   22.5603 C   0  0  0  0  0  0  0  0  0  0  0  0
    5.5666    1.6696   21.0920 C   0  0  0  0  0  0  0  0  0  0  0  0
    4.3088    1.5917   20.2783 N   0  0  0  0  0  0  0  0  0  0  0  0
    2.9772    1.8111   20.9330 C   0  0  0  0  0  0  0  0  0  0  0  0
    1.7195    1.7331   20.1194 O   0  0  0  0  0  0  0  0  0  0  0  0
    2.9033    2.1084   22.4015 C   0  0  0  0  0  0  0  0  0  0  0  0
    1.5717    2.3278   23.0562 C   0  0  0  0  0  0  0  0  0  0  0  0
    1.4979    2.6251   24.5245 C   0  0  0  0  0  0  0  0  0  0  0  0
    2.7556    2.7030   25.3382 C   0  0  0  0  0  0  0  0  0  0  0  0
    2.6817    3.0003   26.8066 F   0  0  0  0  0  0  0  0  0  0  0  0
    4.0872    2.4836   24.6835 C   0  0  0  0  0  0  0  0  0  0  0  0
    4.1611    2.1863   23.2151 C   0  0  0  0  0  0  0  0  0  0  0  0
    9.3284    1.8254   23.1373 C   0  0  0  0  0  0  0  0  0  0  0  0
   10.1298    2.8710   22.4201 C   0  0  0  0  0  0  0  0  0  0  0  0
   11.6243    2.7587   22.3578 N   0  0  0  0  0  0  0  0  0  0  0  0
   12.3173    1.6008   23.0127 C   0  0  0  0  0  0  0  0  0  0  0  0
   11.5159    0.5552   23.7300 C   0  0  0  0  0  0  0  0  0  0  0  0
   12.2089   -0.6028   24.3849 C   0  0  0  0  0  0  0  0  0  0  0  0
   11.4074   -1.6483   25.1021 C   0  0  0  0  0  0  0  0  0  0  0  0
    9.9130   -1.5360   25.1644 C   0  0  0  0  0  0  0  0  0  0  0  0
    9.2200   -0.3781   24.5094 C   0  0  0  0  0  0  0  0  0  0  0  0
   10.0214    0.6675   23.7922 C   0  0  0  0  0  0  0  0  0  0  0  0
    4.3827    1.2944   18.8099 C   0  0  0  0  0  0  0  0  0  0  0  0
    5.1346    0.0903   18.3254 C   0  0  0  0  0  0  0  0  0  0  0  0
    5.8865   -1.1138   17.8409 N   0  0  0  0  0  0  0  0  0  0  0  0
  2  1  1  0  0  0
  2  3  1  0  0  0
  3  4  1  0  0  0
  4 19  1  0  0  0
 19 20  2  0  0  0
 20 21  1  0  0  0
 21 22  2  0  0  0
 22 23  1  0  0  0
 23 24  2  0  0  0
 24 25  1  0  0  0
 25 26  2  0  0  0
 26 27  1  0  0  0
 27 28  2  0  0  0
  4  5  1  0  0  0
  5  6  2  0  0  0
  5  7  1  0  0  0
  7  8  1  0  0  0
  8  9  1  0  0  0
  9 29  1  0  0  0
 29 30  1  0  0  0
 30 31  3  0  0  0
  9 10  1  0  0  0
 10 11  2  0  0  0
 10 12  1  0  0  0
 12 13  2  0  0  0
 13 14  1  0  0  0
 14 15  2  0  0  0
 15 16  1  0  0  0
 15 17  1  0  0  0
 17 18  2  0  0  0
  7  2  1  0  0  0
 18 12  1  0  0  0
 28 19  1  0  0  0
 18  7  1  0  0  0
 28 23  1  0  0  0
M  END
> <minimizedAffinity>
-7.41790

> <CNNscore>
0.4319047034

> <CNNaffinity>
6.2252388000

> <CNN_VS>
2.6887099743

> <CNNaffinity_variance>
0.1705421358

$$$$



 31 35  0  0  0  0  0  0  0  0999 V2000
   11.0526   -2.6082   24.8060 C   0  0  0  0  0  0  0  0  0  0  0  0
    9.6086   -2.6787   24.4060 C   0  0  0  0  0  0  0  0  0  0  0  0
    8.9285   -3.8918   24.9680 C   0  0  0  0  0  0  0  0  0  0  0  0
    7.4985   -3.8728   24.5155 N   0  0  0  0  0  0  0  0  0  0  0  0
    7.2949   -2.6480   23.6738 C   0  0  0  0  0  0  0  0  0  0  0  0
    6.0123   -2.2339   23.0154 O   0  0  0  0  0  0  0  0  0  0  0  0
    8.5990   -1.9100   23.6061 C   0  0  0  0  0  0  0  0  0  0  0  0
    7.4859   -1.2527   22.8453 C   0  0  0  0  0  0  0  0  0  0  0  0
    7.7364    0.0290   22.1074 N   0  0  0  0  0  0  0  0  0  0  0  0
    9.1000    0.6534   22.1303 C   0  0  0  0  0  0  0  0  0  0  0  0
    9.3505    1.9351   21.3923 O   0  0  0  0  0  0  0  0  0  0  0  0
   10.2132   -0.0039   22.8911 C   0  0  0  0  0  0  0  0  0  0  0  0
   11.5769    0.6205   22.9141 C   0  0  0  0  0  0  0  0  0  0  0  0
   12.6900   -0.0367   23.6749 C   0  0  0  0  0  0  0  0  0  0  0  0
   12.4394   -1.3184   24.4128 C   0  0  0  0  0  0  0  0  0  0  0  0
   13.5527   -1.9757   25.1737 F   0  0  0  0  0  0  0  0  0  0  0  0
   11.0758   -1.9428   24.3899 C   0  0  0  0  0  0  0  0  0  0  0  0
    9.9627   -1.2856   23.6291 C   0  0  0  0  0  0  0  0  0  0  0  0
    6.4552   -4.8985   24.8465 C   0  0  0  0  0  0  0  0  0  0  0  0
    6.3448   -6.1483   24.0245 C   0  0  0  0  0  0  0  0  0  0  0  0
    5.3016   -7.1740   24.3555 N   0  0  0  0  0  0  0  0  0  0  0  0
    4.3688   -6.9499   25.5085 C   0  0  0  0  0  0  0  0  0  0  0  0
    4.4792   -5.7001   26.3306 C   0  0  0  0  0  0  0  0  0  0  0  0
    3.5464   -5.4760   27.4838 C   0  0  0  0  0  0  0  0  0  0  0  0
    3.6568   -4.2262   28.3058 C   0  0  0  0  0  0  0  0  0  0  0  0
    4.7000   -3.2005   27.9747 C   0  0  0  0  0  0  0  0  0  0  0  0
    5.6328   -3.4246   26.8216 C   0  0  0  0  0  0  0  0  0  0  0  0
    5.5225   -4.6743   25.9996 C   0  0  0  0  0  0  0  0  0  0  0  0
    6.6232    0.6862   21.3465 C   0  0  0  0  0  0  0  0  0  0  0  0
    6.5435    0.5375   19.8560 C   0  0  0  0  0  0  0  0  0  0  0  0
    6.4638    0.3888   18.3656 N   0  0  0  0  0  0  0  0  0  0  0  0
  2  1  1  0  0  0
  2  3  1  0  0  0
  3  4  1  0  0  0
  4 19  1  0  0  0
 19 20  2  0  0  0
 20 21  1  0  0  0
 21 22  2  0  0  0
 22 23  1  0  0  0
 23 24  2  0  0  0
 24 25  1  0  0  0
 25 26  2  0  0  0
 26 27  1  0  0  0
 27 28  2  0  0  0
  4  5  1  0  0  0
  5  6  2  0  0  0
  5  7  1  0  0  0
  7  8  1  0  0  0
  8  9  1  0  0  0
  9 29  1  0  0  0
 29 30  1  0  0  0
 30 31  3  0  0  0
  9 10  1  0  0  0
 10 11  2  0  0  0
 10 12  1  0  0  0
 12 13  2  0  0  0
 13 14  1  0  0  0
 14 15  2  0  0  0
 15 16  1  0  0  0
 15 17  1  0  0  0
 17 18  2  0  0  0
  7  2  1  0  0  0
 18 12  1  0  0  0
 28 19  1  0  0  0
 18  7  1  0  0  0
 28 23  1  0  0  0
M  END
> <minimizedAffinity>
-7.97186

> <CNNscore>
0.4210163951

> <CNNaffinity>
6.3631987572

> <CNN_VS>
2.6790111065

> <CNNaffinity_variance>
0.2320761234

$$$$



 31 35  0  0  0  0  0  0  0  0999 V2000
    6.1299   -5.0670   22.5666 C   0  0  0  0  0  0  0  0  0  0  0  0
    6.7424   -4.1777   23.6078 C   0  0  0  0  0  0  0  0  0  0  0  0
    7.9583   -3.4655   23.0937 C   0  0  0  0  0  0  0  0  0  0  0  0
    8.4951   -2.6069   24.2004 N   0  0  0  0  0  0  0  0  0  0  0  0
    7.6109   -2.7886   25.3984 C   0  0  0  0  0  0  0  0  0  0  0  0
    7.7803   -2.1173   26.7291 O   0  0  0  0  0  0  0  0  0  0  0  0
    6.5277   -3.7594   25.0322 C   0  0  0  0  0  0  0  0  0  0  0  0
    6.4405   -3.2509   26.4406 C   0  0  0  0  0  0  0  0  0  0  0  0
    5.3365   -3.7208   27.3408 N   0  0  0  0  0  0  0  0  0  0  0  0
    4.3196   -4.6993   26.8324 C   0  0  0  0  0  0  0  0  0  0  0  0
    3.2155   -5.1693   27.7325 O   0  0  0  0  0  0  0  0  0  0  0  0
    4.4067   -5.2079   25.4239 C   0  0  0  0  0  0  0  0  0  0  0  0
    3.3898   -6.1864   24.9156 C   0  0  0  0  0  0  0  0  0  0  0  0
    3.4770   -6.6949   23.5071 C   0  0  0  0  0  0  0  0  0  0  0  0
    4.5810   -6.2249   22.6070 C   0  0  0  0  0  0  0  0  0  0  0  0
    4.6682   -6.7335   21.1985 F   0  0  0  0  0  0  0  0  0  0  0  0
    5.5979   -5.2465   23.1154 C   0  0  0  0  0  0  0  0  0  0  0  0
    5.5108   -4.7379   24.5238 C   0  0  0  0  0  0  0  0  0  0  0  0
    9.7038   -1.7221   24.1227 C   0  0  0  0  0  0  0  0  0  0  0  0
    9.6672   -0.4736   23.2921 C   0  0  0  0  0  0  0  0  0  0  0  0
   10.8759    0.4112   23.2144 N   0  0  0  0  0  0  0  0  0  0  0  0
   12.1212    0.0476   23.9674 C   0  0  0  0  0  0  0  0  0  0  0  0
   12.1578   -1.2009   24.7980 C   0  0  0  0  0  0  0  0  0  0  0  0
   13.4032   -1.5646   25.5510 C   0  0  0  0  0  0  0  0  0  0  0  0
   13.4397   -2.8131   26.3817 C   0  0  0  0  0  0  0  0  0  0  0  0
   12.2310   -3.6979   26.4593 C   0  0  0  0  0  0  0  0  0  0  0  0
   10.9857   -3.3342   25.7063 C   0  0  0  0  0  0  0  0  0  0  0  0
   10.9491   -2.0858   24.8757 C   0  0  0  0  0  0  0  0  0  0  0  0
    5.2494   -3.2122   28.7493 C   0  0  0  0  0  0  0  0  0  0  0  0
    5.1654   -1.7376   29.0103 C   0  0  0  0  0  0  0  0  0  0  0  0
    5.0815   -0.2629   29.2714 N   0  0  0  0  0  0  0  0  0  0  0  0
  2  1  1  0  0  0
  2  3  1  0  0  0
  3  4  1  0  0  0
  4 19  1  0  0  0
 19 20  2  0  0  0
 20 21  1  0  0  0
 21 22  2  0  0  0
 22 23  1  0  0  0
 23 24  2  0  0  0
 24 25  1  0  0  0
 25 26  2  0  0  0
 26 27  1  0  0  0
 27 28  2  0  0  0
  4  5  1  0  0  0
  5  6  2  0  0  0
  5  7  1  0  0  0
  7  8  1  0  0  0
  8  9  1  0  0  0
  9 29  1  0  0  0
 29 30  1  0  0  0
 30 31  3  0  0  0
  9 10  1  0  0  0
 10 11  2  0  0  0
 10 12  1  0  0  0
 12 13  2  0  0  0
 13 14  1  0  0  0
 14 15  2  0  0  0
 15 16  1  0  0  0
 15 17  1  0  0  0
 17 18  2  0  0  0
  7  2  1  0  0  0
 18 12  1  0  0  0
 28 19  1  0  0  0
 18  7  1  0  0  0
 28 23  1  0  0  0
M  END
> <minimizedAffinity>
-7.34424

> <CNNscore>
0.4021354914

> <CNNaffinity>
6.2639427185

> <CNN_VS>
2.5189538002

> <CNNaffinity_variance>
0.1546593457

$$$$



 31 35  0  0  0  0  0  0  0  0999 V2000
    9.6919   -2.2485   26.1783 C   0  0  0  0  0  0  0  0  0  0  0  0
    8.9716   -1.1162   25.5079 C   0  0  0  0  0  0  0  0  0  0  0  0
    7.5265   -1.0557   25.9057 C   0  0  0  0  0  0  0  0  0  0  0  0
    6.8964    0.1011   25.1882 N   0  0  0  0  0  0  0  0  0  0  0  0
    7.9520    0.7554   24.3470 C   0  0  0  0  0  0  0  0  0  0  0  0
    7.7589    1.9520   23.4634 O   0  0  0  0  0  0  0  0  0  0  0  0
    9.2345    0.0031   24.5446 C   0  0  0  0  0  0  0  0  0  0  0  0
    9.3461    1.1609   23.5976 C   0  0  0  0  0  0  0  0  0  0  0  0
   10.6608    1.4731   22.9463 N   0  0  0  0  0  0  0  0  0  0  0  0
   11.8638    0.6274   23.2419 C   0  0  0  0  0  0  0  0  0  0  0  0
   13.1784    0.9396   22.5906 O   0  0  0  0  0  0  0  0  0  0  0  0
   11.7522   -0.5305   24.1890 C   0  0  0  0  0  0  0  0  0  0  0  0
   12.9553   -1.3762   24.4846 C   0  0  0  0  0  0  0  0  0  0  0  0
   12.8437   -2.5340   25.4316 C   0  0  0  0  0  0  0  0  0  0  0  0
   11.5290   -2.8462   26.0830 C   0  0  0  0  0  0  0  0  0  0  0  0
   11.4175   -4.0041   27.0301 F   0  0  0  0  0  0  0  0  0  0  0  0
   10.3260   -2.0005   25.7873 C   0  0  0  0  0  0  0  0  0  0  0  0
   10.4376   -0.8427   24.8403 C   0  0  0  0  0  0  0  0  0  0  0  0
    5.4624    0.5285   25.2934 C   0  0  0  0  0  0  0  0  0  0  0  0
    4.4817    0.1319   24.2301 C   0  0  0  0  0  0  0  0  0  0  0  0
    3.0477    0.5593   24.3353 N   0  0  0  0  0  0  0  0  0  0  0  0
    2.5946    1.3833   25.5039 C   0  0  0  0  0  0  0  0  0  0  0  0
    3.5754    1.7799   26.5673 C   0  0  0  0  0  0  0  0  0  0  0  0
    3.1222    2.6040   27.7359 C   0  0  0  0  0  0  0  0  0  0  0  0
    4.1030    3.0006   28.7993 C   0  0  0  0  0  0  0  0  0  0  0  0
    5.5369    2.5731   28.6940 C   0  0  0  0  0  0  0  0  0  0  0  0
    5.9901    1.7491   27.5254 C   0  0  0  0  0  0  0  0  0  0  0  0
    5.0093    1.3525   26.4621 C   0  0  0  0  0  0  0  0  0  0  0  0
   10.7723    2.6310   21.9992 C   0  0  0  0  0  0  0  0  0  0  0  0
   11.8482    3.6580   22.1936 C   0  0  0  0  0  0  0  0  0  0  0  0
   12.9241    4.6849   22.3880 N   0  0  0  0  0  0  0  0  0  0  0  0
  2  1  1  0  0  0
  2  3  1  0  0  0
  3  4  1  0  0  0
  4 19  1  0  0  0
 19 20  2  0  0  0
 20 21  1  0  0  0
 21 22  2  0  0  0
 22 23  1  0  0  0
 23 24  2  0  0  0
 24 25  1  0  0  0
 25 26  2  0  0  0
 26 27  1  0  0  0
 27 28  2  0  0  0
  4  5  1  0  0  0
  5  6  2  0  0  0
  5  7  1  0  0  0
  7  8  1  0  0  0
  8  9  1  0  0  0
  9 29  1  0  0  0
 29 30  1  0  0  0
 30 31  3  0  0  0
  9 10  1  0  0  0
 10 11  2  0  0  0
 10 12  1  0  0  0
 12 13  2  0  0  0
 13 14  1  0  0  0
 14 15  2  0  0  0
 15 16  1  0  0  0
 15 17  1  0  0  0
 17 18  2  0  0  0
  7  2  1  0  0  0
 18 12  1  0  0  0
 28 19  1  0  0  0
 18  7  1  0  0  0
 28 23  1  0  0  0
M  END
> <minimizedAffinity>
-7.02924

> <CNNscore>
0.3824552596

> <CNNaffinity>
6.1882162094

> <CNN_VS>
2.3667159081

> <CNNaffinity_variance>
0.2399994135

$$$$
