


 27 30  0  0  0  0  0  0  0  0999 V2000
    8.2613   -0.2065   21.3855 O   0  0  0  0  0  0  0  0  0  0  0  0
    7.4388   -1.3940   21.7898 C   0  0  0  0  0  0  0  0  0  0  0  0
    7.9294   -2.3141   22.8681 C   0  0  0  0  0  0  0  0  0  0  0  0
    7.1069   -3.5016   23.2724 C   0  0  0  0  0  0  0  0  0  0  0  0
    5.7938   -3.7690   22.5984 C   0  0  0  0  0  0  0  0  0  0  0  0
    4.9714   -4.9564   23.0026 O   0  0  0  0  0  0  0  0  0  0  0  0
    5.3032   -2.8489   21.5200 C   0  0  0  0  0  0  0  0  0  0  0  0
    6.1257   -1.6614   21.1158 N   0  0  0  0  0  0  0  0  0  0  0  0
    4.1222   -5.1293   22.5668 H   0  0  0  0  0  0  0  0  0  0  0  0
    5.6352   -0.7413   20.0374 C   0  0  0  0  0  0  0  0  0  0  0  0
    6.0117   -0.9936   18.6076 C   0  0  0  0  0  0  0  0  0  0  0  0
    5.5211   -0.0735   17.5293 N   0  0  0  0  0  0  0  0  0  0  0  0
    4.6540    1.0988   17.8808 C   0  0  0  0  0  0  0  0  0  0  0  0
    4.2774    1.3511   19.3107 C   0  0  0  0  0  0  0  0  0  0  0  0
    3.4102    2.5235   19.6623 C   0  0  0  0  0  0  0  0  0  0  0  0
    3.0337    2.7758   21.0921 C   0  0  0  0  0  0  0  0  0  0  0  0
    3.5243    1.8557   22.1704 C   0  0  0  0  0  0  0  0  0  0  0  0
    4.3914    0.6833   21.8189 C   0  0  0  0  0  0  0  0  0  0  0  0
    4.7680    0.4311   20.3890 C   0  0  0  0  0  0  0  0  0  0  0  0
    9.2425   -2.0467   23.5421 C   0  0  0  0  0  0  0  0  0  0  0  0
    9.3050   -1.9081   25.0344 C   0  0  0  0  0  0  0  0  0  0  0  0
   10.6181   -1.6407   25.7085 C   0  0  0  0  0  0  0  0  0  0  0  0
   11.8686   -1.5119   24.8902 C   0  0  0  0  0  0  0  0  0  0  0  0
   13.1817   -1.2445   25.5643 Cl  0  0  0  0  0  0  0  0  0  0  0  0
   11.8061   -1.6505   23.3980 C   0  0  0  0  0  0  0  0  0  0  0  0
   13.0567   -1.5216   22.5797 Cl  0  0  0  0  0  0  0  0  0  0  0  0
   10.4930   -1.9179   22.7239 C   0  0  0  0  0  0  0  0  0  0  0  0
  1  2  2  0  0  0
  2  3  1  0  0  0
  3 20  1  0  0  0
 20 21  2  0  0  0
 21 22  1  0  0  0
 22 23  2  0  0  0
 23 24  1  0  0  0
 23 25  1  0  0  0
 25 26  1  0  0  0
 25 27  2  0  0  0
  3  4  1  0  0  0
  4  5  1  0  0  0
  5  6  1  0  0  0
  5  7  1  0  0  0
  7  8  1  0  0  0
  8 10  1  0  0  0
 10 11  2  0  0  0
 11 12  1  0  0  0
 12 13  2  0  0  0
 13 14  1  0  0  0
 14 15  2  0  0  0
 15 16  1  0  0  0
 16 17  2  0  0  0
 17 18  1  0  0  0
 18 19  2  0  0  0
  8  2  1  0  0  0
 19 10  1  0  0  0
 27 20  1  0  0  0
 19 14  1  0  0  0
  6  9  1  0  0  0
M  END
> <minimizedAffinity>
-8.27289

> <CNNscore>
0.7554378510

> <CNNaffinity>
6.1502637863

> <CNN_VS>
4.6461420059

> <CNNaffinity_variance>
0.2623026967

$$$$



 27 30  0  0  0  0  0  0  0  0999 V2000
    8.3785   -0.4044   21.2338 O   0  0  0  0  0  0  0  0  0  0  0  0
    7.5188   -1.5486   21.6831 C   0  0  0  0  0  0  0  0  0  0  0  0
    8.0396   -2.5258   22.6949 C   0  0  0  0  0  0  0  0  0  0  0  0
    7.1800   -3.6699   23.1443 C   0  0  0  0  0  0  0  0  0  0  0  0
    5.7994   -3.8368   22.5818 C   0  0  0  0  0  0  0  0  0  0  0  0
    4.9398   -4.9810   23.0312 O   0  0  0  0  0  0  0  0  0  0  0  0
    5.2786   -2.8596   21.5700 C   0  0  0  0  0  0  0  0  0  0  0  0
    6.1383   -1.7154   21.1207 N   0  0  0  0  0  0  0  0  0  0  0  0
    4.0471   -5.0889   22.6675 H   0  0  0  0  0  0  0  0  0  0  0  0
    5.6175   -0.7382   20.1089 C   0  0  0  0  0  0  0  0  0  0  0  0
    5.8902   -0.9526   18.6496 C   0  0  0  0  0  0  0  0  0  0  0  0
    5.3694    0.0247   17.6378 N   0  0  0  0  0  0  0  0  0  0  0  0
    4.5758    1.2162   18.0852 C   0  0  0  0  0  0  0  0  0  0  0  0
    4.3031    1.4307   19.5446 C   0  0  0  0  0  0  0  0  0  0  0  0
    3.5095    2.6223   19.9921 C   0  0  0  0  0  0  0  0  0  0  0  0
    3.2367    2.8366   21.4514 C   0  0  0  0  0  0  0  0  0  0  0  0
    3.7576    1.8594   22.4632 C   0  0  0  0  0  0  0  0  0  0  0  0
    4.5511    0.6678   22.0157 C   0  0  0  0  0  0  0  0  0  0  0  0
    4.8239    0.4534   20.5564 C   0  0  0  0  0  0  0  0  0  0  0  0
    9.4202   -2.3589   23.2574 C   0  0  0  0  0  0  0  0  0  0  0  0
   10.4556   -1.5927   22.4887 C   0  0  0  0  0  0  0  0  0  0  0  0
   11.8361   -1.4257   23.0511 C   0  0  0  0  0  0  0  0  0  0  0  0
   12.1812   -2.0249   24.3822 C   0  0  0  0  0  0  0  0  0  0  0  0
   13.5617   -1.8580   24.9446 Cl  0  0  0  0  0  0  0  0  0  0  0  0
   11.1457   -2.7911   25.1509 C   0  0  0  0  0  0  0  0  0  0  0  0
   11.4909   -3.3903   26.4820 Cl  0  0  0  0  0  0  0  0  0  0  0  0
    9.7652   -2.9581   24.5885 C   0  0  0  0  0  0  0  0  0  0  0  0
  1  2  2  0  0  0
  2  3  1  0  0  0
  3 20  1  0  0  0
 20 21  2  0  0  0
 21 22  1  0  0  0
 22 23  2  0  0  0
 23 24  1  0  0  0
 23 25  1  0  0  0
 25 26  1  0  0  0
 25 27  2  0  0  0
  3  4  1  0  0  0
  4  5  1  0  0  0
  5  6  1  0  0  0
  5  7  1  0  0  0
  7  8  1  0  0  0
  8 10  1  0  0  0
 10 11  2  0  0  0
 11 12  1  0  0  0
 12 13  2  0  0  0
 13 14  1  0  0  0
 14 15  2  0  0  0
 15 16  1  0  0  0
 16 17  2  0  0  0
 17 18  1  0  0  0
 18 19  2  0  0  0
  8  2  1  0  0  0
 19 10  1  0  0  0
 27 20  1  0  0  0
 19 14  1  0  0  0
  6  9  1  0  0  0
M  END
> <minimizedAffinity>
-8.22966

> <CNNscore>
0.7418495417

> <CNNaffinity>
6.0770006180

> <CNN_VS>
4.5082201958

> <CNNaffinity_variance>
0.1185318977

$$$$



 27 30  0  0  0  0  0  0  0  0999 V2000
    9.0491   -0.7442   21.8181 O   0  0  0  0  0  0  0  0  0  0  0  0
    8.1159   -0.2068   22.8623 C   0  0  0  0  0  0  0  0  0  0  0  0
    8.5173   -0.2246   24.3075 C   0  0  0  0  0  0  0  0  0  0  0  0
    7.5842    0.3128   25.3518 C   0  0  0  0  0  0  0  0  0  0  0  0
    6.2496    0.8680   24.9509 C   0  0  0  0  0  0  0  0  0  0  0  0
    5.3165    1.4054   25.9951 O   0  0  0  0  0  0  0  0  0  0  0  0
    5.8482    0.8858   23.5057 C   0  0  0  0  0  0  0  0  0  0  0  0
    6.7814    0.3484   22.4614 N   0  0  0  0  0  0  0  0  0  0  0  0
    4.4535    1.7644   25.7359 H   0  0  0  0  0  0  0  0  0  0  0  0
    6.3799    0.3662   21.0163 C   0  0  0  0  0  0  0  0  0  0  0  0
    7.1670   -0.4192   20.0095 C   0  0  0  0  0  0  0  0  0  0  0  0
    6.7655   -0.4014   18.5643 N   0  0  0  0  0  0  0  0  0  0  0  0
    5.5771    0.4018   18.1259 C   0  0  0  0  0  0  0  0  0  0  0  0
    4.7899    1.1873   19.1327 C   0  0  0  0  0  0  0  0  0  0  0  0
    3.6014    1.9905   18.6942 C   0  0  0  0  0  0  0  0  0  0  0  0
    2.8144    2.7760   19.7010 C   0  0  0  0  0  0  0  0  0  0  0  0
    3.2158    2.7582   21.1462 C   0  0  0  0  0  0  0  0  0  0  0  0
    4.4043    1.9549   21.5846 C   0  0  0  0  0  0  0  0  0  0  0  0
    5.1914    1.1695   20.5778 C   0  0  0  0  0  0  0  0  0  0  0  0
    9.8519   -0.7798   24.7084 C   0  0  0  0  0  0  0  0  0  0  0  0
   11.1122   -0.1086   24.2487 C   0  0  0  0  0  0  0  0  0  0  0  0
   12.4467   -0.6637   24.6496 C   0  0  0  0  0  0  0  0  0  0  0  0
   12.5211   -1.8900   25.5101 C   0  0  0  0  0  0  0  0  0  0  0  0
   13.8557   -2.4452   25.9110 Cl  0  0  0  0  0  0  0  0  0  0  0  0
   11.2608   -2.5612   25.9698 C   0  0  0  0  0  0  0  0  0  0  0  0
   11.3352   -3.7876   26.8304 Cl  0  0  0  0  0  0  0  0  0  0  0  0
    9.9263   -2.0061   25.5689 C   0  0  0  0  0  0  0  0  0  0  0  0
  1  2  2  0  0  0
  2  3  1  0  0  0
  3 20  1  0  0  0
 20 21  2  0  0  0
 21 22  1  0  0  0
 22 23  2  0  0  0
 23 24  1  0  0  0
 23 25  1  0  0  0
 25 26  1  0  0  0
 25 27  2  0  0  0
  3  4  1  0  0  0
  4  5  1  0  0  0
  5  6  1  0  0  0
  5  7  1  0  0  0
  7  8  1  0  0  0
  8 10  1  0  0  0
 10 11  2  0  0  0
 11 12  1  0  0  0
 12 13  2  0  0  0
 13 14  1  0  0  0
 14 15  2  0  0  0
 15 16  1  0  0  0
 16 17  2  0  0  0
 17 18  1  0  0  0
 18 19  2  0  0  0
  8  2  1  0  0  0
 19 10  1  0  0  0
 27 20  1  0  0  0
 19 14  1  0  0  0
  6  9  1  0  0  0
M  END
> <minimizedAffinity>
-8.20824

> <CNNscore>
0.6574478745

> <CNNaffinity>
5.9877557755

> <CNN_VS>
3.9366374016

> <CNNaffinity_variance>
0.2552288175

$$$$



 27 30  0  0  0  0  0  0  0  0999 V2000
    8.3343   -0.0029   21.6667 O   0  0  0  0  0  0  0  0  0  0  0  0
    7.7112   -1.3162   22.0370 C   0  0  0  0  0  0  0  0  0  0  0  0
    6.2665   -1.5748   21.7274 C   0  0  0  0  0  0  0  0  0  0  0  0
    5.6434   -2.8880   22.0977 C   0  0  0  0  0  0  0  0  0  0  0  0
    6.4651   -3.9428   22.7777 C   0  0  0  0  0  0  0  0  0  0  0  0
    5.8421   -5.2560   23.1480 O   0  0  0  0  0  0  0  0  0  0  0  0
    7.9099   -3.6842   23.0874 C   0  0  0  0  0  0  0  0  0  0  0  0
    8.5329   -2.3709   22.7170 N   0  0  0  0  0  0  0  0  0  0  0  0
    6.3734   -5.9381   23.5877 H   0  0  0  0  0  0  0  0  0  0  0  0
    9.9776   -2.1124   23.0266 C   0  0  0  0  0  0  0  0  0  0  0  0
   10.8435   -1.4032   22.0280 C   0  0  0  0  0  0  0  0  0  0  0  0
   12.2882   -1.1447   22.3376 N   0  0  0  0  0  0  0  0  0  0  0  0
   12.8671   -1.5953   23.6459 C   0  0  0  0  0  0  0  0  0  0  0  0
   12.0013   -2.3045   24.6447 C   0  0  0  0  0  0  0  0  0  0  0  0
   12.5802   -2.7551   25.9530 C   0  0  0  0  0  0  0  0  0  0  0  0
   11.7144   -3.4643   26.9517 C   0  0  0  0  0  0  0  0  0  0  0  0
   10.2696   -3.7228   26.6420 C   0  0  0  0  0  0  0  0  0  0  0  0
    9.6907   -3.2722   25.3337 C   0  0  0  0  0  0  0  0  0  0  0  0
   10.5565   -2.5630   24.3350 C   0  0  0  0  0  0  0  0  0  0  0  0
    5.4448   -0.5200   21.0474 C   0  0  0  0  0  0  0  0  0  0  0  0
    4.4982    0.3250   21.8474 C   0  0  0  0  0  0  0  0  0  0  0  0
    3.6766    1.3797   21.1675 C   0  0  0  0  0  0  0  0  0  0  0  0
    3.8015    1.5895   19.6875 C   0  0  0  0  0  0  0  0  0  0  0  0
    2.9798    2.6443   19.0075 Cl  0  0  0  0  0  0  0  0  0  0  0  0
    4.7480    0.7445   18.8875 C   0  0  0  0  0  0  0  0  0  0  0  0
    4.8729    0.9543   17.4074 Cl  0  0  0  0  0  0  0  0  0  0  0  0
    5.5697   -0.3102   19.5674 C   0  0  0  0  0  0  0  0  0  0  0  0
  1  2  2  0  0  0
  2  3  1  0  0  0
  3 20  1  0  0  0
 20 21  2  0  0  0
 21 22  1  0  0  0
 22 23  2  0  0  0
 23 24  1  0  0  0
 23 25  1  0  0  0
 25 26  1  0  0  0
 25 27  2  0  0  0
  3  4  1  0  0  0
  4  5  1  0  0  0
  5  6  1  0  0  0
  5  7  1  0  0  0
  7  8  1  0  0  0
  8 10  1  0  0  0
 10 11  2  0  0  0
 11 12  1  0  0  0
 12 13  2  0  0  0
 13 14  1  0  0  0
 14 15  2  0  0  0
 15 16  1  0  0  0
 16 17  2  0  0  0
 17 18  1  0  0  0
 18 19  2  0  0  0
  8  2  1  0  0  0
 19 10  1  0  0  0
 27 20  1  0  0  0
 19 14  1  0  0  0
  6  9  1  0  0  0
M  END
> <minimizedAffinity>
-8.69520

> <CNNscore>
0.6055285335

> <CNNaffinity>
5.9312005043

> <CNN_VS>
3.5915112495

> <CNNaffinity_variance>
0.1229153872

$$$$



 27 30  0  0  0  0  0  0  0  0999 V2000
    8.6545   -1.2913   21.9891 O   0  0  0  0  0  0  0  0  0  0  0  0
    8.8874    0.1649   22.2639 C   0  0  0  0  0  0  0  0  0  0  0  0
    9.8899    0.5818   23.2989 C   0  0  0  0  0  0  0  0  0  0  0  0
   10.1228    2.0379   23.5737 C   0  0  0  0  0  0  0  0  0  0  0  0
    9.3532    3.0771   22.8136 C   0  0  0  0  0  0  0  0  0  0  0  0
    9.5862    4.5332   23.0884 O   0  0  0  0  0  0  0  0  0  0  0  0
    8.3507    2.6602   21.7786 C   0  0  0  0  0  0  0  0  0  0  0  0
    8.1178    1.2040   21.5038 N   0  0  0  0  0  0  0  0  0  0  0  0
    9.0885    5.2052   22.5968 H   0  0  0  0  0  0  0  0  0  0  0  0
    7.1153    0.7871   20.4688 C   0  0  0  0  0  0  0  0  0  0  0  0
    7.4291   -0.3422   19.5328 C   0  0  0  0  0  0  0  0  0  0  0  0
    6.4266   -0.7591   18.4978 N   0  0  0  0  0  0  0  0  0  0  0  0
    5.1104   -0.0467   18.3988 C   0  0  0  0  0  0  0  0  0  0  0  0
    4.7965    1.0827   19.3348 C   0  0  0  0  0  0  0  0  0  0  0  0
    3.4803    1.7952   19.2358 C   0  0  0  0  0  0  0  0  0  0  0  0
    3.1665    2.9245   20.1718 C   0  0  0  0  0  0  0  0  0  0  0  0
    4.1690    3.3414   21.2067 C   0  0  0  0  0  0  0  0  0  0  0  0
    5.4852    2.6290   21.3058 C   0  0  0  0  0  0  0  0  0  0  0  0
    5.7990    1.4996   20.3698 C   0  0  0  0  0  0  0  0  0  0  0  0
   10.6594   -0.4575   24.0591 C   0  0  0  0  0  0  0  0  0  0  0  0
   12.1347   -0.6113   23.8353 C   0  0  0  0  0  0  0  0  0  0  0  0
   12.9042   -1.6504   24.5954 C   0  0  0  0  0  0  0  0  0  0  0  0
   12.1986   -2.5358   25.5793 C   0  0  0  0  0  0  0  0  0  0  0  0
   12.9682   -3.5751   26.3395 Cl  0  0  0  0  0  0  0  0  0  0  0  0
   10.7234   -2.3820   25.8031 C   0  0  0  0  0  0  0  0  0  0  0  0
   10.0177   -3.2674   26.7871 Cl  0  0  0  0  0  0  0  0  0  0  0  0
    9.9538   -1.3428   25.0430 C   0  0  0  0  0  0  0  0  0  0  0  0
  1  2  2  0  0  0
  2  3  1  0  0  0
  3 20  1  0  0  0
 20 21  2  0  0  0
 21 22  1  0  0  0
 22 23  2  0  0  0
 23 24  1  0  0  0
 23 25  1  0  0  0
 25 26  1  0  0  0
 25 27  2  0  0  0
  3  4  1  0  0  0
  4  5  1  0  0  0
  5  6  1  0  0  0
  5  7  1  0  0  0
  7  8  1  0  0  0
  8 10  1  0  0  0
 10 11  2  0  0  0
 11 12  1  0  0  0
 12 13  2  0  0  0
 13 14  1  0  0  0
 14 15  2  0  0  0
 15 16  1  0  0  0
 16 17  2  0  0  0
 17 18  1  0  0  0
 18 19  2  0  0  0
  8  2  1  0  0  0
 19 10  1  0  0  0
 27 20  1  0  0  0
 19 14  1  0  0  0
  6  9  1  0  0  0
M  END
> <minimizedAffinity>
-8.34742

> <CNNscore>
0.5543321967

> <CNNaffinity>
5.9444379807

> <CNN_VS>
3.2951934338

> <CNNaffinity_variance>
0.1211014837

$$$$



 27 30  0  0  0  0  0  0  0  0999 V2000
    8.4352    0.0666   21.5658 O   0  0  0  0  0  0  0  0  0  0  0  0
    7.8279   -1.2300   22.0131 C   0  0  0  0  0  0  0  0  0  0  0  0
    6.3742   -1.5030   21.7633 C   0  0  0  0  0  0  0  0  0  0  0  0
    5.7669   -2.7995   22.2106 C   0  0  0  0  0  0  0  0  0  0  0  0
    6.6132   -3.8232   22.9078 C   0  0  0  0  0  0  0  0  0  0  0  0
    6.0059   -5.1197   23.3551 O   0  0  0  0  0  0  0  0  0  0  0  0
    8.0669   -3.5502   23.1576 C   0  0  0  0  0  0  0  0  0  0  0  0
    8.6742   -2.2536   22.7102 N   0  0  0  0  0  0  0  0  0  0  0  0
    6.5532   -5.7816   23.8059 H   0  0  0  0  0  0  0  0  0  0  0  0
   10.1279   -1.9807   22.9600 C   0  0  0  0  0  0  0  0  0  0  0  0
   10.9431   -1.2573   21.9294 C   0  0  0  0  0  0  0  0  0  0  0  0
   12.3967   -0.9844   22.1792 N   0  0  0  0  0  0  0  0  0  0  0  0
   13.0352   -1.4348   23.4596 C   0  0  0  0  0  0  0  0  0  0  0  0
   12.2200   -2.1581   24.4903 C   0  0  0  0  0  0  0  0  0  0  0  0
   12.8584   -2.6085   25.7707 C   0  0  0  0  0  0  0  0  0  0  0  0
   12.0432   -3.3318   26.8014 C   0  0  0  0  0  0  0  0  0  0  0  0
   10.5896   -3.6048   26.5516 C   0  0  0  0  0  0  0  0  0  0  0  0
    9.9511   -3.1544   25.2711 C   0  0  0  0  0  0  0  0  0  0  0  0
   10.7663   -2.4311   24.2405 C   0  0  0  0  0  0  0  0  0  0  0  0
    5.5279   -0.4793   21.0662 C   0  0  0  0  0  0  0  0  0  0  0  0
    5.6323   -0.3063   19.5798 C   0  0  0  0  0  0  0  0  0  0  0  0
    4.7861    0.7173   18.8827 C   0  0  0  0  0  0  0  0  0  0  0  0
    3.8354    1.5678   19.6718 C   0  0  0  0  0  0  0  0  0  0  0  0
    2.9891    2.5915   18.9747 Cl  0  0  0  0  0  0  0  0  0  0  0  0
    3.7310    1.3948   21.1582 C   0  0  0  0  0  0  0  0  0  0  0  0
    2.7803    2.2454   21.9473 Cl  0  0  0  0  0  0  0  0  0  0  0  0
    4.5773    0.3712   21.8553 C   0  0  0  0  0  0  0  0  0  0  0  0
  1  2  2  0  0  0
  2  3  1  0  0  0
  3 20  1  0  0  0
 20 21  2  0  0  0
 21 22  1  0  0  0
 22 23  2  0  0  0
 23 24  1  0  0  0
 23 25  1  0  0  0
 25 26  1  0  0  0
 25 27  2  0  0  0
  3  4  1  0  0  0
  4  5  1  0  0  0
  5  6  1  0  0  0
  5  7  1  0  0  0
  7  8  1  0  0  0
  8 10  1  0  0  0
 10 11  2  0  0  0
 11 12  1  0  0  0
 12 13  2  0  0  0
 13 14  1  0  0  0
 14 15  2  0  0  0
 15 16  1  0  0  0
 16 17  2  0  0  0
 17 18  1  0  0  0
 18 19  2  0  0  0
  8  2  1  0  0  0
 19 10  1  0  0  0
 27 20  1  0  0  0
 19 14  1  0  0  0
  6  9  1  0  0  0
M  END
> <minimizedAffinity>
-8.30066

> <CNNscore>
0.5228707194

> <CNNaffinity>
5.9362545013

> <CNN_VS>
3.1038937569

> <CNNaffinity_variance>
0.1047414094

$$$$



 27 30  0  0  0  0  0  0  0  0999 V2000
    7.7734    0.0148   23.2028 O   0  0  0  0  0  0  0  0  0  0  0  0
    7.2593   -1.3752   22.9712 C   0  0  0  0  0  0  0  0  0  0  0  0
    8.1071   -2.5584   23.3333 C   0  0  0  0  0  0  0  0  0  0  0  0
    7.5931   -3.9484   23.1017 C   0  0  0  0  0  0  0  0  0  0  0  0
    6.2312   -4.1552   22.5079 C   0  0  0  0  0  0  0  0  0  0  0  0
    5.7172   -5.5452   22.2763 O   0  0  0  0  0  0  0  0  0  0  0  0
    5.3833   -2.9720   22.1458 C   0  0  0  0  0  0  0  0  0  0  0  0
    5.8974   -1.5819   22.3775 N   0  0  0  0  0  0  0  0  0  0  0  0
    4.8365   -5.6789   21.8924 H   0  0  0  0  0  0  0  0  0  0  0  0
    5.0496   -0.3987   22.0153 C   0  0  0  0  0  0  0  0  0  0  0  0
    4.2872    0.3318   23.0807 C   0  0  0  0  0  0  0  0  0  0  0  0
    3.4394    1.5151   22.7186 N   0  0  0  0  0  0  0  0  0  0  0  0
    3.3539    1.9678   21.2911 C   0  0  0  0  0  0  0  0  0  0  0  0
    4.1164    1.2372   20.2256 C   0  0  0  0  0  0  0  0  0  0  0  0
    4.0310    1.6899   18.7982 C   0  0  0  0  0  0  0  0  0  0  0  0
    4.7934    0.9594   17.7328 C   0  0  0  0  0  0  0  0  0  0  0  0
    5.6412   -0.2238   18.0950 C   0  0  0  0  0  0  0  0  0  0  0  0
    5.7266   -0.6766   19.5224 C   0  0  0  0  0  0  0  0  0  0  0  0
    4.9642    0.0540   20.5878 C   0  0  0  0  0  0  0  0  0  0  0  0
    9.4690   -2.3516   23.9271 C   0  0  0  0  0  0  0  0  0  0  0  0
    9.6666   -2.4687   25.4094 C   0  0  0  0  0  0  0  0  0  0  0  0
   11.0284   -2.2620   26.0032 C   0  0  0  0  0  0  0  0  0  0  0  0
   12.1927   -1.9381   25.1147 C   0  0  0  0  0  0  0  0  0  0  0  0
   13.5546   -1.7313   25.7084 Cl  0  0  0  0  0  0  0  0  0  0  0  0
   11.9951   -1.8210   23.6323 C   0  0  0  0  0  0  0  0  0  0  0  0
   13.1595   -1.4971   22.7438 Cl  0  0  0  0  0  0  0  0  0  0  0  0
   10.6333   -2.0278   23.0386 C   0  0  0  0  0  0  0  0  0  0  0  0
  1  2  2  0  0  0
  2  3  1  0  0  0
  3 20  1  0  0  0
 20 21  2  0  0  0
 21 22  1  0  0  0
 22 23  2  0  0  0
 23 24  1  0  0  0
 23 25  1  0  0  0
 25 26  1  0  0  0
 25 27  2  0  0  0
  3  4  1  0  0  0
  4  5  1  0  0  0
  5  6  1  0  0  0
  5  7  1  0  0  0
  7  8  1  0  0  0
  8 10  1  0  0  0
 10 11  2  0  0  0
 11 12  1  0  0  0
 12 13  2  0  0  0
 13 14  1  0  0  0
 14 15  2  0  0  0
 15 16  1  0  0  0
 16 17  2  0  0  0
 17 18  1  0  0  0
 18 19  2  0  0  0
  8  2  1  0  0  0
 19 10  1  0  0  0
 27 20  1  0  0  0
 19 14  1  0  0  0
  6  9  1  0  0  0
M  END
> <minimizedAffinity>
-8.19036

> <CNNscore>
0.4901205301

> <CNNaffinity>
5.9276967049

> <CNN_VS>
2.9052858353

> <CNNaffinity_variance>
0.2423652858

$$$$



 27 30  0  0  0  0  0  0  0  0999 V2000
    7.9105   -1.1776   21.8401 O   0  0  0  0  0  0  0  0  0  0  0  0
    8.1529    0.2495   22.2334 C   0  0  0  0  0  0  0  0  0  0  0  0
    9.0657    0.5665   23.3807 C   0  0  0  0  0  0  0  0  0  0  0  0
    9.3082    1.9935   23.7741 C   0  0  0  0  0  0  0  0  0  0  0  0
    8.6378    3.1036   23.0201 C   0  0  0  0  0  0  0  0  0  0  0  0
    8.8802    4.5306   23.4135 O   0  0  0  0  0  0  0  0  0  0  0  0
    7.7250    2.7866   21.8728 C   0  0  0  0  0  0  0  0  0  0  0  0
    7.4825    1.3595   21.4795 N   0  0  0  0  0  0  0  0  0  0  0  0
    8.4467    5.2484   22.9260 H   0  0  0  0  0  0  0  0  0  0  0  0
    6.5697    1.0425   20.3322 C   0  0  0  0  0  0  0  0  0  0  0  0
    6.9543   -0.0118   19.3369 C   0  0  0  0  0  0  0  0  0  0  0  0
    6.0415   -0.3288   18.1896 N   0  0  0  0  0  0  0  0  0  0  0  0
    4.7441    0.4085   18.0376 C   0  0  0  0  0  0  0  0  0  0  0  0
    4.3594    1.4628   19.0329 C   0  0  0  0  0  0  0  0  0  0  0  0
    3.0620    2.2000   18.8809 C   0  0  0  0  0  0  0  0  0  0  0  0
    2.6775    3.2543   19.8761 C   0  0  0  0  0  0  0  0  0  0  0  0
    3.5903    3.5713   21.0234 C   0  0  0  0  0  0  0  0  0  0  0  0
    4.8877    2.8340   21.1754 C   0  0  0  0  0  0  0  0  0  0  0  0
    5.2723    1.7798   20.1802 C   0  0  0  0  0  0  0  0  0  0  0  0
    9.7361   -0.5436   24.1346 C   0  0  0  0  0  0  0  0  0  0  0  0
    8.9517   -1.3656   25.1140 C   0  0  0  0  0  0  0  0  0  0  0  0
    9.6220   -2.4757   25.8679 C   0  0  0  0  0  0  0  0  0  0  0  0
   11.0767   -2.7637   25.6425 C   0  0  0  0  0  0  0  0  0  0  0  0
   11.7470   -3.8738   26.3964 Cl  0  0  0  0  0  0  0  0  0  0  0  0
   11.8610   -1.9418   24.6631 C   0  0  0  0  0  0  0  0  0  0  0  0
   13.3158   -2.2299   24.4377 Cl  0  0  0  0  0  0  0  0  0  0  0  0
   11.1908   -0.8317   23.9092 C   0  0  0  0  0  0  0  0  0  0  0  0
  1  2  2  0  0  0
  2  3  1  0  0  0
  3 20  1  0  0  0
 20 21  2  0  0  0
 21 22  1  0  0  0
 22 23  2  0  0  0
 23 24  1  0  0  0
 23 25  1  0  0  0
 25 26  1  0  0  0
 25 27  2  0  0  0
  3  4  1  0  0  0
  4  5  1  0  0  0
  5  6  1  0  0  0
  5  7  1  0  0  0
  7  8  1  0  0  0
  8 10  1  0  0  0
 10 11  2  0  0  0
 11 12  1  0  0  0
 12 13  2  0  0  0
 13 14  1  0  0  0
 14 15  2  0  0  0
 15 16  1  0  0  0
 16 17  2  0  0  0
 17 18  1  0  0  0
 18 19  2  0  0  0
  8  2  1  0  0  0
 19 10  1  0  0  0
 27 20  1  0  0  0
 19 14  1  0  0  0
  6  9  1  0  0  0
M  END
> <minimizedAffinity>
-8.32546

> <CNNscore>
0.4076003134

> <CNNaffinity>
5.7526998520

> <CNN_VS>
2.3448023796

> <CNNaffinity_variance>
0.1550429910

$$$$



 27 30  0  0  0  0  0  0  0  0999 V2000
    7.7488   -0.4365   23.5863 O   0  0  0  0  0  0  0  0  0  0  0  0
    7.1784   -1.7578   23.1632 C   0  0  0  0  0  0  0  0  0  0  0  0
    7.9183   -3.0264   23.4687 C   0  0  0  0  0  0  0  0  0  0  0  0
    7.3480   -4.3477   23.0457 C   0  0  0  0  0  0  0  0  0  0  0  0
    6.0378   -4.4004   22.3172 C   0  0  0  0  0  0  0  0  0  0  0  0
    5.4674   -5.7216   21.8942 O   0  0  0  0  0  0  0  0  0  0  0  0
    5.2979   -3.1318   22.0118 C   0  0  0  0  0  0  0  0  0  0  0  0
    5.8683   -1.8105   22.4349 N   0  0  0  0  0  0  0  0  0  0  0  0
    4.6202   -5.7557   21.4232 H   0  0  0  0  0  0  0  0  0  0  0  0
    5.1284   -0.5419   22.1295 C   0  0  0  0  0  0  0  0  0  0  0  0
    4.4799    0.2335   23.2377 C   0  0  0  0  0  0  0  0  0  0  0  0
    3.7400    1.5021   22.9323 N   0  0  0  0  0  0  0  0  0  0  0  0
    3.6487    1.9953   21.5186 C   0  0  0  0  0  0  0  0  0  0  0  0
    4.2972    1.2199   20.4103 C   0  0  0  0  0  0  0  0  0  0  0  0
    4.2059    1.7131   18.9967 C   0  0  0  0  0  0  0  0  0  0  0  0
    4.8544    0.9378   17.8885 C   0  0  0  0  0  0  0  0  0  0  0  0
    5.5943   -0.3308   18.1939 C   0  0  0  0  0  0  0  0  0  0  0  0
    5.6856   -0.8240   19.6075 C   0  0  0  0  0  0  0  0  0  0  0  0
    5.0371   -0.0487   20.7157 C   0  0  0  0  0  0  0  0  0  0  0  0
    9.2286   -2.9737   24.1971 C   0  0  0  0  0  0  0  0  0  0  0  0
   10.3918   -2.2418   23.5961 C   0  0  0  0  0  0  0  0  0  0  0  0
   11.7020   -2.1890   24.3245 C   0  0  0  0  0  0  0  0  0  0  0  0
   11.8490   -2.8682   25.6538 C   0  0  0  0  0  0  0  0  0  0  0  0
   13.1592   -2.8155   26.3822 Cl  0  0  0  0  0  0  0  0  0  0  0  0
   10.6857   -3.6001   26.2547 C   0  0  0  0  0  0  0  0  0  0  0  0
   10.8327   -4.2793   27.5841 Cl  0  0  0  0  0  0  0  0  0  0  0  0
    9.3755   -3.6528   25.5264 C   0  0  0  0  0  0  0  0  0  0  0  0
  1  2  2  0  0  0
  2  3  1  0  0  0
  3 20  1  0  0  0
 20 21  2  0  0  0
 21 22  1  0  0  0
 22 23  2  0  0  0
 23 24  1  0  0  0
 23 25  1  0  0  0
 25 26  1  0  0  0
 25 27  2  0  0  0
  3  4  1  0  0  0
  4  5  1  0  0  0
  5  6  1  0  0  0
  5  7  1  0  0  0
  7  8  1  0  0  0
  8 10  1  0  0  0
 10 11  2  0  0  0
 11 12  1  0  0  0
 12 13  2  0  0  0
 13 14  1  0  0  0
 14 15  2  0  0  0
 15 16  1  0  0  0
 16 17  2  0  0  0
 17 18  1  0  0  0
 18 19  2  0  0  0
  8  2  1  0  0  0
 19 10  1  0  0  0
 27 20  1  0  0  0
 19 14  1  0  0  0
  6  9  1  0  0  0
M  END
> <minimizedAffinity>
-8.01814

> <CNNscore>
0.3705556095

> <CNNaffinity>
5.6292738914

> <CNN_VS>
2.0859589577

> <CNNaffinity_variance>
0.2028746307

$$$$
