


 36 40  0  0  0  0  0  0  0  0999 V2000
    7.2295   -3.4445   22.9320 N   0  0  0  0  0  0  0  0  0  0  0  0
    6.6977   -2.1641   22.3594 C   0  0  0  0  0  0  0  0  0  0  0  0
    7.4005   -0.8687   22.6388 O   0  0  0  0  0  0  0  0  0  0  0  0
   11.6693   -0.3582   23.0469 C   0  0  0  0  0  0  0  0  0  0  0  0
   10.4349   -0.3732   22.1949 O   0  0  0  0  0  0  0  0  0  0  0  0
   11.8354   -1.3670   24.1445 N   0  0  0  0  0  0  0  0  0  0  0  0
   13.0698   -1.3520   24.9965 C   0  0  0  0  0  0  0  0  0  0  0  0
   13.2358   -2.3607   26.0941 C   0  0  0  0  0  0  0  0  0  0  0  0
   12.1674   -3.3845   26.3398 C   0  0  0  0  0  0  0  0  0  0  0  0
   10.9330   -3.3994   25.4879 C   0  0  0  0  0  0  0  0  0  0  0  0
    9.8645   -4.4232   25.7336 C   0  0  0  0  0  0  0  0  0  0  0  0
    8.6300   -4.4382   24.8816 C   0  0  0  0  0  0  0  0  0  0  0  0
    8.4640   -3.4295   23.7840 C   0  0  0  0  0  0  0  0  0  0  0  0
    9.5324   -2.4057   23.5383 C   0  0  0  0  0  0  0  0  0  0  0  0
   10.7669   -2.3907   24.3902 C   0  0  0  0  0  0  0  0  0  0  0  0
   12.3780    2.1192   22.7153 C   0  0  0  0  0  0  0  0  0  0  0  0
   12.7377    0.6655   22.8012 C   0  0  0  0  0  0  0  0  0  0  0  0
    6.5267   -4.7399   22.6527 C   0  0  0  0  0  0  0  0  0  0  0  0
    5.3224   -5.1287   23.4578 C   0  0  0  0  0  0  0  0  0  0  0  0
    5.2018   -4.6892   24.8869 C   0  0  0  0  0  0  0  0  0  0  0  0
    3.9975   -5.0779   25.6921 C   0  0  0  0  0  0  0  0  0  0  0  0
    2.9136   -5.9062   25.0682 C   0  0  0  0  0  0  0  0  0  0  0  0
    3.0341   -6.3457   23.6391 C   0  0  0  0  0  0  0  0  0  0  0  0
    1.9503   -7.1739   23.0152 Br  0  0  0  0  0  0  0  0  0  0  0  0
    4.2386   -5.9569   22.8339 C   0  0  0  0  0  0  0  0  0  0  0  0
    5.4633   -2.1792   21.5075 C   0  0  0  0  0  0  0  0  0  0  0  0
    5.2866   -1.1561   20.4248 C   0  0  0  0  0  0  0  0  0  0  0  0
    5.7122   -1.4688   19.0209 C   0  0  0  0  0  0  0  0  0  0  0  0
    5.5356   -0.4457   17.9382 N   0  0  0  0  0  0  0  0  0  0  0  0
    4.9333    0.8899   18.2595 C   0  0  0  0  0  0  0  0  0  0  0  0
    4.5077    1.2026   19.6635 C   0  0  0  0  0  0  0  0  0  0  0  0
    3.9054    2.5383   19.9847 C   0  0  0  0  0  0  0  0  0  0  0  0
    3.4798    2.8509   21.3887 C   0  0  0  0  0  0  0  0  0  0  0  0
    3.6564    1.8278   22.4714 C   0  0  0  0  0  0  0  0  0  0  0  0
    4.2587    0.4921   22.1501 C   0  0  0  0  0  0  0  0  0  0  0  0
    4.6843    0.1795   20.7461 C   0  0  0  0  0  0  0  0  0  0  0  0
 16 17  1  0  0  0
 17  4  1  0  0  0
  4  5  2  0  0  0
  4  6  1  0  0  0
  6  7  1  0  0  0
  7  8  1  0  0  0
  8  9  1  0  0  0
  9 10  1  0  0  0
 10 11  2  0  0  0
 11 12  1  0  0  0
 12 13  2  0  0  0
 13  1  1  0  0  0
  1 18  1  0  0  0
 18 19  1  0  0  0
 19 20  2  0  0  0
 20 21  1  0  0  0
 21 22  2  0  0  0
 22 23  1  0  0  0
 23 24  1  0  0  0
 23 25  2  0  0  0
  1  2  1  0  0  0
  2  3  2  0  0  0
  2 26  1  0  0  0
 26 27  1  0  0  0
 27 28  2  0  0  0
 28 29  1  0  0  0
 29 30  2  0  0  0
 30 31  1  0  0  0
 31 32  2  0  0  0
 32 33  1  0  0  0
 33 34  2  0  0  0
 34 35  1  0  0  0
 35 36  2  0  0  0
 13 14  1  0  0  0
 14 15  2  0  0  0
 15  6  1  0  0  0
 15 10  1  0  0  0
 25 19  1  0  0  0
 36 27  1  0  0  0
 36 31  1  0  0  0
M  END
> <minimizedAffinity>
-9.19305

> <CNNscore>
0.5604178309

> <CNNaffinity>
6.9033155441

> <CNN_VS>
3.8687410355

> <CNNaffinity_variance>
0.1402077526

$$$$



 36 40  0  0  0  0  0  0  0  0999 V2000
    9.7871   -0.4848   22.8900 N   0  0  0  0  0  0  0  0  0  0  0  0
    8.3459   -0.8898   22.9842 C   0  0  0  0  0  0  0  0  0  0  0  0
    7.2756    0.1584   23.0601 O   0  0  0  0  0  0  0  0  0  0  0  0
    6.9846    4.1081   23.4399 C   0  0  0  0  0  0  0  0  0  0  0  0
    6.6136    2.6549   23.4582 O   0  0  0  0  0  0  0  0  0  0  0  0
    8.4134    4.5149   23.2321 N   0  0  0  0  0  0  0  0  0  0  0  0
    8.7844    5.9682   23.2138 C   0  0  0  0  0  0  0  0  0  0  0  0
   10.2132    6.3749   23.0061 C   0  0  0  0  0  0  0  0  0  0  0  0
   11.2709    5.3284   22.8167 C   0  0  0  0  0  0  0  0  0  0  0  0
   10.9000    3.8752   22.8351 C   0  0  0  0  0  0  0  0  0  0  0  0
   11.9578    2.8286   22.6457 C   0  0  0  0  0  0  0  0  0  0  0  0
   11.5868    1.3754   22.6640 C   0  0  0  0  0  0  0  0  0  0  0  0
   10.1580    0.9686   22.8717 C   0  0  0  0  0  0  0  0  0  0  0  0
    9.1002    2.0151   23.0611 C   0  0  0  0  0  0  0  0  0  0  0  0
    9.4712    3.4684   23.0428 C   0  0  0  0  0  0  0  0  0  0  0  0
    5.1332    5.6404   22.4527 C   0  0  0  0  0  0  0  0  0  0  0  0
    5.9268    5.1546   23.6292 C   0  0  0  0  0  0  0  0  0  0  0  0
   10.8573   -1.5330   22.8142 C   0  0  0  0  0  0  0  0  0  0  0  0
   11.5463   -1.9932   24.0645 C   0  0  0  0  0  0  0  0  0  0  0  0
   12.9065   -1.4633   24.4098 C   0  0  0  0  0  0  0  0  0  0  0  0
   13.5955   -1.9235   25.6601 C   0  0  0  0  0  0  0  0  0  0  0  0
   12.9244   -2.9137   26.5653 C   0  0  0  0  0  0  0  0  0  0  0  0
   11.5643   -3.4436   26.2200 C   0  0  0  0  0  0  0  0  0  0  0  0
   10.8931   -4.4338   27.1251 Br  0  0  0  0  0  0  0  0  0  0  0  0
   10.8752   -2.9833   24.9696 C   0  0  0  0  0  0  0  0  0  0  0  0
    7.9750   -2.3431   23.0026 C   0  0  0  0  0  0  0  0  0  0  0  0
    7.1733   -2.8983   24.1424 C   0  0  0  0  0  0  0  0  0  0  0  0
    7.3436   -2.3366   25.5228 C   0  0  0  0  0  0  0  0  0  0  0  0
    6.5420   -2.8917   26.6625 N   0  0  0  0  0  0  0  0  0  0  0  0
    5.5700   -4.0086   26.4219 C   0  0  0  0  0  0  0  0  0  0  0  0
    5.3997   -4.5703   25.0416 C   0  0  0  0  0  0  0  0  0  0  0  0
    4.4277   -5.6872   24.8010 C   0  0  0  0  0  0  0  0  0  0  0  0
    4.2574   -6.2489   23.4206 C   0  0  0  0  0  0  0  0  0  0  0  0
    5.0591   -5.6937   22.2808 C   0  0  0  0  0  0  0  0  0  0  0  0
    6.0311   -4.5768   22.5214 C   0  0  0  0  0  0  0  0  0  0  0  0
    6.2014   -4.0151   23.9018 C   0  0  0  0  0  0  0  0  0  0  0  0
 16 17  1  0  0  0
 17  4  1  0  0  0
  4  5  2  0  0  0
  4  6  1  0  0  0
  6  7  1  0  0  0
  7  8  1  0  0  0
  8  9  1  0  0  0
  9 10  1  0  0  0
 10 11  2  0  0  0
 11 12  1  0  0  0
 12 13  2  0  0  0
 13  1  1  0  0  0
  1 18  1  0  0  0
 18 19  1  0  0  0
 19 20  2  0  0  0
 20 21  1  0  0  0
 21 22  2  0  0  0
 22 23  1  0  0  0
 23 24  1  0  0  0
 23 25  2  0  0  0
  1  2  1  0  0  0
  2  3  2  0  0  0
  2 26  1  0  0  0
 26 27  1  0  0  0
 27 28  2  0  0  0
 28 29  1  0  0  0
 29 30  2  0  0  0
 30 31  1  0  0  0
 31 32  2  0  0  0
 32 33  1  0  0  0
 33 34  2  0  0  0
 34 35  1  0  0  0
 35 36  2  0  0  0
 13 14  1  0  0  0
 14 15  2  0  0  0
 15  6  1  0  0  0
 15 10  1  0  0  0
 25 19  1  0  0  0
 36 27  1  0  0  0
 36 31  1  0  0  0
M  END
> <minimizedAffinity>
-8.39302

> <CNNscore>
0.5471361279

> <CNNaffinity>
7.0365471840

> <CNN_VS>
3.8499491215

> <CNNaffinity_variance>
0.0674257427

$$$$



 36 40  0  0  0  0  0  0  0  0999 V2000
    7.3608   -1.4979   23.4718 N   0  0  0  0  0  0  0  0  0  0  0  0
    6.8410   -0.1469   23.0788 C   0  0  0  0  0  0  0  0  0  0  0  0
    5.7639    0.5079   23.8918 O   0  0  0  0  0  0  0  0  0  0  0  0
    4.1934   -5.8251   24.1745 C   0  0  0  0  0  0  0  0  0  0  0  0
    4.7507   -5.1290   22.9683 O   0  0  0  0  0  0  0  0  0  0  0  0
    4.5062   -5.3110   25.5484 N   0  0  0  0  0  0  0  0  0  0  0  0
    3.9490   -6.0072   26.7546 C   0  0  0  0  0  0  0  0  0  0  0  0
    4.2618   -5.4931   28.1286 C   0  0  0  0  0  0  0  0  0  0  0  0
    5.1318   -4.2828   28.2964 C   0  0  0  0  0  0  0  0  0  0  0  0
    5.6891   -3.5866   27.0903 C   0  0  0  0  0  0  0  0  0  0  0  0
    6.5591   -2.3762   27.2581 C   0  0  0  0  0  0  0  0  0  0  0  0
    7.1163   -1.6801   26.0520 C   0  0  0  0  0  0  0  0  0  0  0  0
    6.8036   -2.1942   24.6780 C   0  0  0  0  0  0  0  0  0  0  0  0
    5.9335   -3.4045   24.5101 C   0  0  0  0  0  0  0  0  0  0  0  0
    5.3763   -4.1007   25.7163 C   0  0  0  0  0  0  0  0  0  0  0  0
    1.9660   -6.9026   23.3824 C   0  0  0  0  0  0  0  0  0  0  0  0
    3.3234   -7.0354   24.0066 C   0  0  0  0  0  0  0  0  0  0  0  0
    8.4379   -2.1528   22.6588 C   0  0  0  0  0  0  0  0  0  0  0  0
    9.8756   -2.0036   23.0595 C   0  0  0  0  0  0  0  0  0  0  0  0
   10.8419   -1.3133   22.1431 C   0  0  0  0  0  0  0  0  0  0  0  0
   12.2797   -1.1642   22.5439 C   0  0  0  0  0  0  0  0  0  0  0  0
   12.7511   -1.7052   23.8611 C   0  0  0  0  0  0  0  0  0  0  0  0
   11.7848   -2.3955   24.7775 C   0  0  0  0  0  0  0  0  0  0  0  0
   12.2562   -2.9365   26.0947 Br  0  0  0  0  0  0  0  0  0  0  0  0
   10.3470   -2.5446   24.3767 C   0  0  0  0  0  0  0  0  0  0  0  0
    7.3983    0.5492   21.8727 C   0  0  0  0  0  0  0  0  0  0  0  0
    6.6641    0.4891   20.5660 C   0  0  0  0  0  0  0  0  0  0  0  0
    7.1361   -0.4344   19.4823 C   0  0  0  0  0  0  0  0  0  0  0  0
    6.4019   -0.4945   18.1757 N   0  0  0  0  0  0  0  0  0  0  0  0
    5.1957    0.3689   17.9527 C   0  0  0  0  0  0  0  0  0  0  0  0
    4.7238    1.2924   19.0364 C   0  0  0  0  0  0  0  0  0  0  0  0
    3.5176    2.1558   18.8134 C   0  0  0  0  0  0  0  0  0  0  0  0
    3.0456    3.0793   19.8970 C   0  0  0  0  0  0  0  0  0  0  0  0
    3.7798    3.1395   21.2037 C   0  0  0  0  0  0  0  0  0  0  0  0
    4.9860    2.2761   21.4267 C   0  0  0  0  0  0  0  0  0  0  0  0
    5.4579    1.3525   20.3430 C   0  0  0  0  0  0  0  0  0  0  0  0
 16 17  1  0  0  0
 17  4  1  0  0  0
  4  5  2  0  0  0
  4  6  1  0  0  0
  6  7  1  0  0  0
  7  8  1  0  0  0
  8  9  1  0  0  0
  9 10  1  0  0  0
 10 11  2  0  0  0
 11 12  1  0  0  0
 12 13  2  0  0  0
 13  1  1  0  0  0
  1 18  1  0  0  0
 18 19  1  0  0  0
 19 20  2  0  0  0
 20 21  1  0  0  0
 21 22  2  0  0  0
 22 23  1  0  0  0
 23 24  1  0  0  0
 23 25  2  0  0  0
  1  2  1  0  0  0
  2  3  2  0  0  0
  2 26  1  0  0  0
 26 27  1  0  0  0
 27 28  2  0  0  0
 28 29  1  0  0  0
 29 30  2  0  0  0
 30 31  1  0  0  0
 31 32  2  0  0  0
 32 33  1  0  0  0
 33 34  2  0  0  0
 34 35  1  0  0  0
 35 36  2  0  0  0
 13 14  1  0  0  0
 14 15  2  0  0  0
 15  6  1  0  0  0
 15 10  1  0  0  0
 25 19  1  0  0  0
 36 27  1  0  0  0
 36 31  1  0  0  0
M  END
> <minimizedAffinity>
-8.33282

> <CNNscore>
0.4502547681

> <CNNaffinity>
6.8270964622

> <CNN_VS>
3.0739326477

> <CNNaffinity_variance>
0.1170343980

$$$$



 36 40  0  0  0  0  0  0  0  0999 V2000
    7.6854   -0.4466   23.8835 N   0  0  0  0  0  0  0  0  0  0  0  0
    6.9745   -0.5890   22.5703 C   0  0  0  0  0  0  0  0  0  0  0  0
    5.8139   -1.5309   22.4440 O   0  0  0  0  0  0  0  0  0  0  0  0
    5.3796    0.8270   28.6070 C   0  0  0  0  0  0  0  0  0  0  0  0
    5.8293    1.6264   27.4202 O   0  0  0  0  0  0  0  0  0  0  0  0
    5.5485   -0.6634   28.6150 N   0  0  0  0  0  0  0  0  0  0  0  0
    5.0988   -1.4628   29.8019 C   0  0  0  0  0  0  0  0  0  0  0  0
    5.2678   -2.9533   29.8099 C   0  0  0  0  0  0  0  0  0  0  0  0
    5.8864   -3.6443   28.6310 C   0  0  0  0  0  0  0  0  0  0  0  0
    6.3361   -2.8449   27.4442 C   0  0  0  0  0  0  0  0  0  0  0  0
    6.9548   -3.5359   26.2653 C   0  0  0  0  0  0  0  0  0  0  0  0
    7.4045   -2.7365   25.0784 C   0  0  0  0  0  0  0  0  0  0  0  0
    7.2356   -1.2460   25.0704 C   0  0  0  0  0  0  0  0  0  0  0  0
    6.6169   -0.5550   26.2492 C   0  0  0  0  0  0  0  0  0  0  0  0
    6.1672   -1.3544   27.4362 C   0  0  0  0  0  0  0  0  0  0  0  0
    5.5992    1.8527   30.9839 C   0  0  0  0  0  0  0  0  0  0  0  0
    4.7609    1.5181   29.7858 C   0  0  0  0  0  0  0  0  0  0  0  0
    8.8460    0.4952   24.0098 C   0  0  0  0  0  0  0  0  0  0  0  0
   10.2468   -0.0403   24.0380 C   0  0  0  0  0  0  0  0  0  0  0  0
   11.2561    0.4464   23.0409 C   0  0  0  0  0  0  0  0  0  0  0  0
   12.6569   -0.0891   23.0692 C   0  0  0  0  0  0  0  0  0  0  0  0
   13.0485   -1.1115   24.0946 C   0  0  0  0  0  0  0  0  0  0  0  0
   12.0392   -1.5983   25.0918 C   0  0  0  0  0  0  0  0  0  0  0  0
   12.4307   -2.6206   26.1172 Br  0  0  0  0  0  0  0  0  0  0  0  0
   10.6383   -1.0627   25.0635 C   0  0  0  0  0  0  0  0  0  0  0  0
    7.4243    0.2103   21.3835 C   0  0  0  0  0  0  0  0  0  0  0  0
    6.5177    0.3691   20.1989 C   0  0  0  0  0  0  0  0  0  0  0  0
    6.7428   -0.4557   18.9664 C   0  0  0  0  0  0  0  0  0  0  0  0
    5.8363   -0.2969   17.7820 N   0  0  0  0  0  0  0  0  0  0  0  0
    4.7047    0.6866   17.8300 C   0  0  0  0  0  0  0  0  0  0  0  0
    4.4797    1.5113   19.0625 C   0  0  0  0  0  0  0  0  0  0  0  0
    3.3481    2.4948   19.1106 C   0  0  0  0  0  0  0  0  0  0  0  0
    3.1230    3.3195   20.3431 C   0  0  0  0  0  0  0  0  0  0  0  0
    4.0296    3.1608   21.5276 C   0  0  0  0  0  0  0  0  0  0  0  0
    5.1611    2.1773   21.4796 C   0  0  0  0  0  0  0  0  0  0  0  0
    5.3862    1.3526   20.2470 C   0  0  0  0  0  0  0  0  0  0  0  0
 16 17  1  0  0  0
 17  4  1  0  0  0
  4  5  2  0  0  0
  4  6  1  0  0  0
  6  7  1  0  0  0
  7  8  1  0  0  0
  8  9  1  0  0  0
  9 10  1  0  0  0
 10 11  2  0  0  0
 11 12  1  0  0  0
 12 13  2  0  0  0
 13  1  1  0  0  0
  1 18  1  0  0  0
 18 19  1  0  0  0
 19 20  2  0  0  0
 20 21  1  0  0  0
 21 22  2  0  0  0
 22 23  1  0  0  0
 23 24  1  0  0  0
 23 25  2  0  0  0
  1  2  1  0  0  0
  2  3  2  0  0  0
  2 26  1  0  0  0
 26 27  1  0  0  0
 27 28  2  0  0  0
 28 29  1  0  0  0
 29 30  2  0  0  0
 30 31  1  0  0  0
 31 32  2  0  0  0
 32 33  1  0  0  0
 33 34  2  0  0  0
 34 35  1  0  0  0
 35 36  2  0  0  0
 13 14  1  0  0  0
 14 15  2  0  0  0
 15  6  1  0  0  0
 15 10  1  0  0  0
 25 19  1  0  0  0
 36 27  1  0  0  0
 36 31  1  0  0  0
M  END
> <minimizedAffinity>
-8.00116

> <CNNscore>
0.4271428585

> <CNNaffinity>
6.5475730896

> <CNN_VS>
2.7967491150

> <CNNaffinity_variance>
0.1257816255

$$$$



 36 40  0  0  0  0  0  0  0  0999 V2000
    6.6054   -2.3436   23.4536 N   0  0  0  0  0  0  0  0  0  0  0  0
    6.1797   -1.9783   22.0624 C   0  0  0  0  0  0  0  0  0  0  0  0
    5.1689   -2.8204   21.3419 O   0  0  0  0  0  0  0  0  0  0  0  0
    4.8874   -3.3803   28.4759 C   0  0  0  0  0  0  0  0  0  0  0  0
    5.4724   -2.1728   27.8053 O   0  0  0  0  0  0  0  0  0  0  0  0
    4.6800   -4.6447   27.6960 N   0  0  0  0  0  0  0  0  0  0  0  0
    4.0949   -5.8521   28.3666 C   0  0  0  0  0  0  0  0  0  0  0  0
    3.8875   -7.1165   27.5867 C   0  0  0  0  0  0  0  0  0  0  0  0
    4.2651   -7.1735   26.1361 C   0  0  0  0  0  0  0  0  0  0  0  0
    4.8502   -5.9660   25.4655 C   0  0  0  0  0  0  0  0  0  0  0  0
    5.2278   -6.0229   24.0149 C   0  0  0  0  0  0  0  0  0  0  0  0
    5.8129   -4.8155   23.3443 C   0  0  0  0  0  0  0  0  0  0  0  0
    6.0203   -3.5511   24.1242 C   0  0  0  0  0  0  0  0  0  0  0  0
    5.6427   -3.4941   25.5748 C   0  0  0  0  0  0  0  0  0  0  0  0
    5.0576   -4.7016   26.2455 C   0  0  0  0  0  0  0  0  0  0  0  0
    5.1474   -2.3083   30.8282 C   0  0  0  0  0  0  0  0  0  0  0  0
    4.5098   -3.3233   29.9265 C   0  0  0  0  0  0  0  0  0  0  0  0
    7.6161   -1.5015   24.1741 C   0  0  0  0  0  0  0  0  0  0  0  0
    8.8828   -2.1223   24.6841 C   0  0  0  0  0  0  0  0  0  0  0  0
    8.8672   -3.5206   25.2267 C   0  0  0  0  0  0  0  0  0  0  0  0
   10.1339   -4.1414   25.7367 C   0  0  0  0  0  0  0  0  0  0  0  0
   11.4163   -3.3638   25.7040 C   0  0  0  0  0  0  0  0  0  0  0  0
   11.4319   -1.9655   25.1613 C   0  0  0  0  0  0  0  0  0  0  0  0
   12.7142   -1.1880   25.1286 Br  0  0  0  0  0  0  0  0  0  0  0  0
   10.1651   -1.3447   24.6514 C   0  0  0  0  0  0  0  0  0  0  0  0
    6.7647   -0.7709   21.3918 C   0  0  0  0  0  0  0  0  0  0  0  0
    6.0643   -0.1511   20.2190 C   0  0  0  0  0  0  0  0  0  0  0  0
    6.5985   -0.3561   18.8324 C   0  0  0  0  0  0  0  0  0  0  0  0
    5.8982    0.2636   17.6597 N   0  0  0  0  0  0  0  0  0  0  0  0
    4.6636    1.0883   17.8735 C   0  0  0  0  0  0  0  0  0  0  0  0
    4.1294    1.2933   19.2601 C   0  0  0  0  0  0  0  0  0  0  0  0
    2.8949    2.1180   19.4739 C   0  0  0  0  0  0  0  0  0  0  0  0
    2.3607    2.3230   20.8604 C   0  0  0  0  0  0  0  0  0  0  0  0
    3.0611    1.7033   22.0333 C   0  0  0  0  0  0  0  0  0  0  0  0
    4.2956    0.8786   21.8195 C   0  0  0  0  0  0  0  0  0  0  0  0
    4.8298    0.6736   20.4328 C   0  0  0  0  0  0  0  0  0  0  0  0
 16 17  1  0  0  0
 17  4  1  0  0  0
  4  5  2  0  0  0
  4  6  1  0  0  0
  6  7  1  0  0  0
  7  8  1  0  0  0
  8  9  1  0  0  0
  9 10  1  0  0  0
 10 11  2  0  0  0
 11 12  1  0  0  0
 12 13  2  0  0  0
 13  1  1  0  0  0
  1 18  1  0  0  0
 18 19  1  0  0  0
 19 20  2  0  0  0
 20 21  1  0  0  0
 21 22  2  0  0  0
 22 23  1  0  0  0
 23 24  1  0  0  0
 23 25  2  0  0  0
  1  2  1  0  0  0
  2  3  2  0  0  0
  2 26  1  0  0  0
 26 27  1  0  0  0
 27 28  2  0  0  0
 28 29  1  0  0  0
 29 30  2  0  0  0
 30 31  1  0  0  0
 31 32  2  0  0  0
 32 33  1  0  0  0
 33 34  2  0  0  0
 34 35  1  0  0  0
 35 36  2  0  0  0
 13 14  1  0  0  0
 14 15  2  0  0  0
 15  6  1  0  0  0
 15 10  1  0  0  0
 25 19  1  0  0  0
 36 27  1  0  0  0
 36 31  1  0  0  0
M  END
> <minimizedAffinity>
-8.11624

> <CNNscore>
0.4223552942

> <CNNaffinity>
6.5708961487

> <CNN_VS>
2.7752528191

> <CNNaffinity_variance>
0.1298272461

$$$$



 36 40  0  0  0  0  0  0  0  0999 V2000
    6.6294   -0.8595   24.3825 N   0  0  0  0  0  0  0  0  0  0  0  0
    6.8212   -2.3067   24.0379 C   0  0  0  0  0  0  0  0  0  0  0  0
    5.7106   -3.0760   23.3863 O   0  0  0  0  0  0  0  0  0  0  0  0
    4.3752    1.0579   19.8556 C   0  0  0  0  0  0  0  0  0  0  0  0
    5.6776    0.3800   20.1625 O   0  0  0  0  0  0  0  0  0  0  0  0
    3.3900    1.3226   20.9553 N   0  0  0  0  0  0  0  0  0  0  0  0
    2.0876    2.0004   20.6485 C   0  0  0  0  0  0  0  0  0  0  0  0
    1.1025    2.2652   21.7482 C   0  0  0  0  0  0  0  0  0  0  0  0
    1.4197    1.8520   23.1548 C   0  0  0  0  0  0  0  0  0  0  0  0
    2.7221    1.1742   23.4617 C   0  0  0  0  0  0  0  0  0  0  0  0
    3.0394    0.7610   24.8684 C   0  0  0  0  0  0  0  0  0  0  0  0
    4.3418    0.0832   25.1753 C   0  0  0  0  0  0  0  0  0  0  0  0
    5.3270   -0.1816   24.0755 C   0  0  0  0  0  0  0  0  0  0  0  0
    5.0097    0.2316   22.6689 C   0  0  0  0  0  0  0  0  0  0  0  0
    3.7073    0.9095   22.3620 C   0  0  0  0  0  0  0  0  0  0  0  0
    5.0494    1.2198   17.3518 C   0  0  0  0  0  0  0  0  0  0  0  0
    4.0579    1.4710   18.4490 C   0  0  0  0  0  0  0  0  0  0  0  0
    7.7401   -0.0901   25.0340 C   0  0  0  0  0  0  0  0  0  0  0  0
    8.2818    1.1454   24.3783 C   0  0  0  0  0  0  0  0  0  0  0  0
    7.4113    2.3577   24.2278 C   0  0  0  0  0  0  0  0  0  0  0  0
    7.9531    3.5932   23.5720 C   0  0  0  0  0  0  0  0  0  0  0  0
    9.3653    3.6165   23.0669 C   0  0  0  0  0  0  0  0  0  0  0  0
   10.2357    2.4042   23.2175 C   0  0  0  0  0  0  0  0  0  0  0  0
   11.6479    2.4275   22.7123 Br  0  0  0  0  0  0  0  0  0  0  0  0
    9.6940    1.1687   23.8732 C   0  0  0  0  0  0  0  0  0  0  0  0
    8.1236   -2.9845   24.3448 C   0  0  0  0  0  0  0  0  0  0  0  0
    9.3960   -2.4758   23.7345 C   0  0  0  0  0  0  0  0  0  0  0  0
    9.3896   -1.9198   22.3414 C   0  0  0  0  0  0  0  0  0  0  0  0
   10.6619   -1.4112   21.7311 N   0  0  0  0  0  0  0  0  0  0  0  0
   11.9406   -1.4587   22.5139 C   0  0  0  0  0  0  0  0  0  0  0  0
   11.9470   -2.0147   23.9070 C   0  0  0  0  0  0  0  0  0  0  0  0
   13.2256   -2.0622   24.6898 C   0  0  0  0  0  0  0  0  0  0  0  0
   13.2320   -2.6183   26.0828 C   0  0  0  0  0  0  0  0  0  0  0  0
   11.9596   -3.1269   26.6932 C   0  0  0  0  0  0  0  0  0  0  0  0
   10.6809   -3.0794   25.9104 C   0  0  0  0  0  0  0  0  0  0  0  0
   10.6746   -2.5233   24.5172 C   0  0  0  0  0  0  0  0  0  0  0  0
 16 17  1  0  0  0
 17  4  1  0  0  0
  4  5  2  0  0  0
  4  6  1  0  0  0
  6  7  1  0  0  0
  7  8  1  0  0  0
  8  9  1  0  0  0
  9 10  1  0  0  0
 10 11  2  0  0  0
 11 12  1  0  0  0
 12 13  2  0  0  0
 13  1  1  0  0  0
  1 18  1  0  0  0
 18 19  1  0  0  0
 19 20  2  0  0  0
 20 21  1  0  0  0
 21 22  2  0  0  0
 22 23  1  0  0  0
 23 24  1  0  0  0
 23 25  2  0  0  0
  1  2  1  0  0  0
  2  3  2  0  0  0
  2 26  1  0  0  0
 26 27  1  0  0  0
 27 28  2  0  0  0
 28 29  1  0  0  0
 29 30  2  0  0  0
 30 31  1  0  0  0
 31 32  2  0  0  0
 32 33  1  0  0  0
 33 34  2  0  0  0
 34 35  1  0  0  0
 35 36  2  0  0  0
 13 14  1  0  0  0
 14 15  2  0  0  0
 15  6  1  0  0  0
 15 10  1  0  0  0
 25 19  1  0  0  0
 36 27  1  0  0  0
 36 31  1  0  0  0
M  END
> <minimizedAffinity>
-7.97828

> <CNNscore>
0.4145398140

> <CNNaffinity>
6.6576738358

> <CNN_VS>
2.7598707676

> <CNNaffinity_variance>
0.0693577752

$$$$



 36 40  0  0  0  0  0  0  0  0999 V2000
    6.7447   -1.5247   24.1398 N   0  0  0  0  0  0  0  0  0  0  0  0
    7.8477   -1.5123   23.1234 C   0  0  0  0  0  0  0  0  0  0  0  0
    7.7675   -0.5931   21.9407 O   0  0  0  0  0  0  0  0  0  0  0  0
    4.4480    0.9022   19.8870 C   0  0  0  0  0  0  0  0  0  0  0  0
    5.6312   -0.0045   20.0532 O   0  0  0  0  0  0  0  0  0  0  0  0
    3.6358    1.3022   21.0830 N   0  0  0  0  0  0  0  0  0  0  0  0
    2.4525    2.2089   20.9168 C   0  0  0  0  0  0  0  0  0  0  0  0
    1.6404    2.6090   22.1128 C   0  0  0  0  0  0  0  0  0  0  0  0
    2.0115    2.1023   23.4749 C   0  0  0  0  0  0  0  0  0  0  0  0
    3.1947    1.1956   23.6411 C   0  0  0  0  0  0  0  0  0  0  0  0
    3.5659    0.6889   25.0033 C   0  0  0  0  0  0  0  0  0  0  0  0
    4.7492   -0.2179   25.1695 C   0  0  0  0  0  0  0  0  0  0  0  0
    5.5614   -0.6179   23.9735 C   0  0  0  0  0  0  0  0  0  0  0  0
    5.1902   -0.1112   22.6114 C   0  0  0  0  0  0  0  0  0  0  0  0
    4.0069    0.7955   22.4451 C   0  0  0  0  0  0  0  0  0  0  0  0
    4.9446    1.0894   17.3437 C   0  0  0  0  0  0  0  0  0  0  0  0
    4.0769    1.4088   18.5249 C   0  0  0  0  0  0  0  0  0  0  0  0
    6.8249   -2.4438   25.3224 C   0  0  0  0  0  0  0  0  0  0  0  0
    6.3117   -3.8492   25.2162 C   0  0  0  0  0  0  0  0  0  0  0  0
    5.1661   -4.2963   26.0751 C   0  0  0  0  0  0  0  0  0  0  0  0
    4.6528   -5.7017   25.9689 C   0  0  0  0  0  0  0  0  0  0  0  0
    5.2852   -6.6602   25.0038 C   0  0  0  0  0  0  0  0  0  0  0  0
    6.4309   -6.2132   24.1449 C   0  0  0  0  0  0  0  0  0  0  0  0
    7.0633   -7.1716   23.1798 Br  0  0  0  0  0  0  0  0  0  0  0  0
    6.9441   -4.8076   24.2511 C   0  0  0  0  0  0  0  0  0  0  0  0
    9.0310   -2.4190   23.2896 C   0  0  0  0  0  0  0  0  0  0  0  0
   10.4158   -1.8443   23.3352 C   0  0  0  0  0  0  0  0  0  0  0  0
   10.8693   -0.8946   22.2664 C   0  0  0  0  0  0  0  0  0  0  0  0
   12.2540   -0.3200   22.3120 N   0  0  0  0  0  0  0  0  0  0  0  0
   13.1853   -0.6949   23.4265 C   0  0  0  0  0  0  0  0  0  0  0  0
   12.7318   -1.6445   24.4954 C   0  0  0  0  0  0  0  0  0  0  0  0
   13.6631   -2.0194   25.6099 C   0  0  0  0  0  0  0  0  0  0  0  0
   13.2096   -2.9690   26.6788 C   0  0  0  0  0  0  0  0  0  0  0  0
   11.8248   -3.5438   26.6332 C   0  0  0  0  0  0  0  0  0  0  0  0
   10.8935   -3.1689   25.5186 C   0  0  0  0  0  0  0  0  0  0  0  0
   11.3471   -2.2192   24.4497 C   0  0  0  0  0  0  0  0  0  0  0  0
 16 17  1  0  0  0
 17  4  1  0  0  0
  4  5  2  0  0  0
  4  6  1  0  0  0
  6  7  1  0  0  0
  7  8  1  0  0  0
  8  9  1  0  0  0
  9 10  1  0  0  0
 10 11  2  0  0  0
 11 12  1  0  0  0
 12 13  2  0  0  0
 13  1  1  0  0  0
  1 18  1  0  0  0
 18 19  1  0  0  0
 19 20  2  0  0  0
 20 21  1  0  0  0
 21 22  2  0  0  0
 22 23  1  0  0  0
 23 24  1  0  0  0
 23 25  2  0  0  0
  1  2  1  0  0  0
  2  3  2  0  0  0
  2 26  1  0  0  0
 26 27  1  0  0  0
 27 28  2  0  0  0
 28 29  1  0  0  0
 29 30  2  0  0  0
 30 31  1  0  0  0
 31 32  2  0  0  0
 32 33  1  0  0  0
 33 34  2  0  0  0
 34 35  1  0  0  0
 35 36  2  0  0  0
 13 14  1  0  0  0
 14 15  2  0  0  0
 15  6  1  0  0  0
 15 10  1  0  0  0
 25 19  1  0  0  0
 36 27  1  0  0  0
 36 31  1  0  0  0
M  END
> <minimizedAffinity>
-8.55396

> <CNNscore>
0.4107192457

> <CNNaffinity>
6.8311643600

> <CNN_VS>
2.8056907654

> <CNNaffinity_variance>
0.0800320134

$$$$



 36 40  0  0  0  0  0  0  0  0999 V2000
    6.7879   -2.3541   23.5391 N   0  0  0  0  0  0  0  0  0  0  0  0
    6.6445   -1.7973   22.1537 C   0  0  0  0  0  0  0  0  0  0  0  0
    7.8648   -1.4257   21.3646 O   0  0  0  0  0  0  0  0  0  0  0  0
   11.4155    0.4307   23.2535 C   0  0  0  0  0  0  0  0  0  0  0  0
   10.0517    0.6159   22.6571 O   0  0  0  0  0  0  0  0  0  0  0  0
   11.6914   -0.7444   24.1439 N   0  0  0  0  0  0  0  0  0  0  0  0
   13.0552   -0.9296   24.7403 C   0  0  0  0  0  0  0  0  0  0  0  0
   13.3311   -2.1048   25.6308 C   0  0  0  0  0  0  0  0  0  0  0  0
   12.2433   -3.0948   25.9248 C   0  0  0  0  0  0  0  0  0  0  0  0
   10.8795   -2.9096   25.3284 C   0  0  0  0  0  0  0  0  0  0  0  0
    9.7915   -3.8996   25.6224 C   0  0  0  0  0  0  0  0  0  0  0  0
    8.4277   -3.7144   25.0259 C   0  0  0  0  0  0  0  0  0  0  0  0
    8.1518   -2.5392   24.1355 C   0  0  0  0  0  0  0  0  0  0  0  0
    9.2397   -1.5493   23.8415 C   0  0  0  0  0  0  0  0  0  0  0  0
   10.6035   -1.7344   24.4379 C   0  0  0  0  0  0  0  0  0  0  0  0
   12.1570    2.8499   22.6640 C   0  0  0  0  0  0  0  0  0  0  0  0
   12.5033    1.4207   22.9595 C   0  0  0  0  0  0  0  0  0  0  0  0
    5.5676   -2.7257   24.3282 C   0  0  0  0  0  0  0  0  0  0  0  0
    5.1796   -1.9208   25.5330 C   0  0  0  0  0  0  0  0  0  0  0  0
    4.0508   -2.3780   26.4086 C   0  0  0  0  0  0  0  0  0  0  0  0
    3.6629   -1.5731   27.6135 C   0  0  0  0  0  0  0  0  0  0  0  0
    4.4038   -0.3110   27.9427 C   0  0  0  0  0  0  0  0  0  0  0  0
    5.5326    0.1461   27.0671 C   0  0  0  0  0  0  0  0  0  0  0  0
    6.2736    1.4080   27.3963 Br  0  0  0  0  0  0  0  0  0  0  0  0
    5.9206   -0.6589   25.8622 C   0  0  0  0  0  0  0  0  0  0  0  0
    5.2807   -1.6122   21.5574 C   0  0  0  0  0  0  0  0  0  0  0  0
    5.1024   -0.7419   20.3487 C   0  0  0  0  0  0  0  0  0  0  0  0
    5.6329   -1.1879   19.0184 C   0  0  0  0  0  0  0  0  0  0  0  0
    5.4546   -0.3176   17.8099 N   0  0  0  0  0  0  0  0  0  0  0  0
    4.7459    0.9988   17.9315 C   0  0  0  0  0  0  0  0  0  0  0  0
    4.2154    1.4448   19.2617 C   0  0  0  0  0  0  0  0  0  0  0  0
    3.5066    2.7612   19.3834 C   0  0  0  0  0  0  0  0  0  0  0  0
    2.9761    3.2073   20.7136 C   0  0  0  0  0  0  0  0  0  0  0  0
    3.1544    2.3369   21.9223 C   0  0  0  0  0  0  0  0  0  0  0  0
    3.8631    1.0206   21.8006 C   0  0  0  0  0  0  0  0  0  0  0  0
    4.3936    0.5745   20.4703 C   0  0  0  0  0  0  0  0  0  0  0  0
 16 17  1  0  0  0
 17  4  1  0  0  0
  4  5  2  0  0  0
  4  6  1  0  0  0
  6  7  1  0  0  0
  7  8  1  0  0  0
  8  9  1  0  0  0
  9 10  1  0  0  0
 10 11  2  0  0  0
 11 12  1  0  0  0
 12 13  2  0  0  0
 13  1  1  0  0  0
  1 18  1  0  0  0
 18 19  1  0  0  0
 19 20  2  0  0  0
 20 21  1  0  0  0
 21 22  2  0  0  0
 22 23  1  0  0  0
 23 24  1  0  0  0
 23 25  2  0  0  0
  1  2  1  0  0  0
  2  3  2  0  0  0
  2 26  1  0  0  0
 26 27  1  0  0  0
 27 28  2  0  0  0
 28 29  1  0  0  0
 29 30  2  0  0  0
 30 31  1  0  0  0
 31 32  2  0  0  0
 32 33  1  0  0  0
 33 34  2  0  0  0
 34 35  1  0  0  0
 35 36  2  0  0  0
 13 14  1  0  0  0
 14 15  2  0  0  0
 15  6  1  0  0  0
 15 10  1  0  0  0
 25 19  1  0  0  0
 36 27  1  0  0  0
 36 31  1  0  0  0
M  END
> <minimizedAffinity>
-7.98375

> <CNNscore>
0.4103197753

> <CNNaffinity>
6.7440757751

> <CNN_VS>
2.7672276497

> <CNNaffinity_variance>
0.0783925280

$$$$



 36 40  0  0  0  0  0  0  0  0999 V2000
    6.4783   -1.8257   23.8268 N   0  0  0  0  0  0  0  0  0  0  0  0
    6.0204   -0.3993   23.7517 C   0  0  0  0  0  0  0  0  0  0  0  0
    6.8254    0.6824   24.4090 O   0  0  0  0  0  0  0  0  0  0  0  0
   11.7378   -1.3751   22.6500 C   0  0  0  0  0  0  0  0  0  0  0  0
   10.4749   -1.0303   21.9177 O   0  0  0  0  0  0  0  0  0  0  0  0
   11.6685   -1.9850   24.0187 N   0  0  0  0  0  0  0  0  0  0  0  0
   12.9313   -2.3298   24.7509 C   0  0  0  0  0  0  0  0  0  0  0  0
   12.8620   -2.9397   26.1196 C   0  0  0  0  0  0  0  0  0  0  0  0
   11.5298   -3.2048   26.7560 C   0  0  0  0  0  0  0  0  0  0  0  0
   10.2670   -2.8600   26.0237 C   0  0  0  0  0  0  0  0  0  0  0  0
    8.9347   -3.1251   26.6600 C   0  0  0  0  0  0  0  0  0  0  0  0
    7.6719   -2.7803   25.9277 C   0  0  0  0  0  0  0  0  0  0  0  0
    7.7412   -2.1704   24.5591 C   0  0  0  0  0  0  0  0  0  0  0  0
    9.0734   -1.9053   23.9227 C   0  0  0  0  0  0  0  0  0  0  0  0
   10.3363   -2.2501   24.6550 C   0  0  0  0  0  0  0  0  0  0  0  0
   13.3879   -1.6928   20.6686 C   0  0  0  0  0  0  0  0  0  0  0  0
   13.0700   -1.1100   22.0136 C   0  0  0  0  0  0  0  0  0  0  0  0
    5.6733   -2.9073   23.1696 C   0  0  0  0  0  0  0  0  0  0  0  0
    5.8154   -4.3296   23.6245 C   0  0  0  0  0  0  0  0  0  0  0  0
    6.8284   -5.2265   22.9771 C   0  0  0  0  0  0  0  0  0  0  0  0
    6.9705   -6.6487   23.4320 C   0  0  0  0  0  0  0  0  0  0  0  0
    6.0995   -7.1741   24.5345 C   0  0  0  0  0  0  0  0  0  0  0  0
    5.0864   -6.2772   25.1820 C   0  0  0  0  0  0  0  0  0  0  0  0
    4.2154   -6.8024   26.2844 Br  0  0  0  0  0  0  0  0  0  0  0  0
    4.9444   -4.8549   24.7270 C   0  0  0  0  0  0  0  0  0  0  0  0
    4.7575   -0.0545   23.0195 C   0  0  0  0  0  0  0  0  0  0  0  0
    4.8024    0.2590   21.5533 C   0  0  0  0  0  0  0  0  0  0  0  0
    5.8625   -0.3543   20.6873 C   0  0  0  0  0  0  0  0  0  0  0  0
    5.9074   -0.0407   19.2211 N   0  0  0  0  0  0  0  0  0  0  0  0
    4.8922    0.8862   18.6210 C   0  0  0  0  0  0  0  0  0  0  0  0
    3.8321    1.4995   19.4870 C   0  0  0  0  0  0  0  0  0  0  0  0
    2.8168    2.4263   18.8868 C   0  0  0  0  0  0  0  0  0  0  0  0
    1.7567    3.0396   19.7528 C   0  0  0  0  0  0  0  0  0  0  0  0
    1.7118    2.7261   21.2190 C   0  0  0  0  0  0  0  0  0  0  0  0
    2.7270    1.7992   21.8192 C   0  0  0  0  0  0  0  0  0  0  0  0
    3.7872    1.1859   20.9531 C   0  0  0  0  0  0  0  0  0  0  0  0
 16 17  1  0  0  0
 17  4  1  0  0  0
  4  5  2  0  0  0
  4  6  1  0  0  0
  6  7  1  0  0  0
  7  8  1  0  0  0
  8  9  1  0  0  0
  9 10  1  0  0  0
 10 11  2  0  0  0
 11 12  1  0  0  0
 12 13  2  0  0  0
 13  1  1  0  0  0
  1 18  1  0  0  0
 18 19  1  0  0  0
 19 20  2  0  0  0
 20 21  1  0  0  0
 21 22  2  0  0  0
 22 23  1  0  0  0
 23 24  1  0  0  0
 23 25  2  0  0  0
  1  2  1  0  0  0
  2  3  2  0  0  0
  2 26  1  0  0  0
 26 27  1  0  0  0
 27 28  2  0  0  0
 28 29  1  0  0  0
 29 30  2  0  0  0
 30 31  1  0  0  0
 31 32  2  0  0  0
 32 33  1  0  0  0
 33 34  2  0  0  0
 34 35  1  0  0  0
 35 36  2  0  0  0
 13 14  1  0  0  0
 14 15  2  0  0  0
 15  6  1  0  0  0
 15 10  1  0  0  0
 25 19  1  0  0  0
 36 27  1  0  0  0
 36 31  1  0  0  0
M  END
> <minimizedAffinity>
-8.28286

> <CNNscore>
0.3957549930

> <CNNaffinity>
6.8289842606

> <CNN_VS>
2.7026045322

> <CNNaffinity_variance>
0.0624328963

$$$$
