


 35 40  0  0  0  0  0  0  0  0999 V2000
    7.4430   -3.3271   23.3750 C   0  0  0  0  0  0  0  0  0  0  0  0
    7.6434   -2.0370   22.6364 C   0  0  0  0  0  0  0  0  0  0  0  0
    6.5482   -1.7819   21.6436 C   0  0  0  0  0  0  0  0  0  0  0  0
    6.8362   -0.4778   20.9607 N   0  0  0  0  0  0  0  0  0  0  0  0
    8.1094    0.0730   21.5313 C   0  0  0  0  0  0  0  0  0  0  0  0
    8.7680    1.3614   21.1357 O   0  0  0  0  0  0  0  0  0  0  0  0
    8.6083   -0.8906   22.5669 C   0  0  0  0  0  0  0  0  0  0  0  0
    9.4802    0.3165   22.3864 C   0  0  0  0  0  0  0  0  0  0  0  0
   10.7253    0.4720   23.2083 N   0  0  0  0  0  0  0  0  0  0  0  0
   11.0985   -0.5796   24.2107 C   0  0  0  0  0  0  0  0  0  0  0  0
   12.3436   -0.4241   25.0326 O   0  0  0  0  0  0  0  0  0  0  0  0
   10.2266   -1.7868   24.3913 C   0  0  0  0  0  0  0  0  0  0  0  0
   10.5997   -2.8383   25.3937 C   0  0  0  0  0  0  0  0  0  0  0  0
    9.7278   -4.0454   25.5742 C   0  0  0  0  0  0  0  0  0  0  0  0
    8.4827   -4.2009   24.7523 C   0  0  0  0  0  0  0  0  0  0  0  0
    7.6107   -5.4081   24.9328 F   0  0  0  0  0  0  0  0  0  0  0  0
    8.1095   -3.1493   23.7499 C   0  0  0  0  0  0  0  0  0  0  0  0
    8.9814   -1.9422   23.5694 C   0  0  0  0  0  0  0  0  0  0  0  0
    5.9982    0.1630   19.8943 C   0  0  0  0  0  0  0  0  0  0  0  0
    6.3919    0.0345   18.4527 C   0  0  0  0  0  0  0  0  0  0  0  0
    5.5539    0.6752   17.3864 N   0  0  0  0  0  0  0  0  0  0  0  0
    4.3221    1.4445   17.7617 C   0  0  0  0  0  0  0  0  0  0  0  0
    3.9283    1.5729   19.2034 C   0  0  0  0  0  0  0  0  0  0  0  0
    2.6964    2.3422   19.5787 C   0  0  0  0  0  0  0  0  0  0  0  0
    2.3027    2.4706   21.0204 C   0  0  0  0  0  0  0  0  0  0  0  0
    3.1408    1.8299   22.0867 C   0  0  0  0  0  0  0  0  0  0  0  0
    4.3726    1.0607   21.7113 C   0  0  0  0  0  0  0  0  0  0  0  0
    4.7663    0.9322   20.2697 C   0  0  0  0  0  0  0  0  0  0  0  0
   11.5973    1.6792   23.0278 C   0  0  0  0  0  0  0  0  0  0  0  0
   10.9885    3.0500   23.0220 C   0  0  0  0  0  0  0  0  0  0  0  0
   11.8235    4.2400   22.6522 C   0  0  0  0  0  0  0  0  0  0  0  0
   11.2147    5.6108   22.6464 C   0  0  0  0  0  0  0  0  0  0  0  0
    9.7708    5.7918   23.0104 N   0  0  0  0  0  0  0  0  0  0  0  0
    8.9358    4.6018   23.3802 C   0  0  0  0  0  0  0  0  0  0  0  0
    9.5447    3.2309   23.3860 N   0  0  0  0  0  0  0  0  0  0  0  0
  2  1  1  0  0  0
  2  3  1  0  0  0
  3  4  1  0  0  0
  4 19  1  0  0  0
 19 20  2  0  0  0
 20 21  1  0  0  0
 21 22  2  0  0  0
 22 23  1  0  0  0
 23 24  2  0  0  0
 24 25  1  0  0  0
 25 26  2  0  0  0
 26 27  1  0  0  0
 27 28  2  0  0  0
  4  5  1  0  0  0
  5  6  2  0  0  0
  5  7  1  0  0  0
  7  8  1  0  0  0
  8  9  1  0  0  0
  9 29  1  0  0  0
 29 30  1  0  0  0
 30 31  2  0  0  0
 31 32  1  0  0  0
 32 33  2  0  0  0
 33 34  1  0  0  0
 34 35  2  0  0  0
  9 10  1  0  0  0
 10 11  2  0  0  0
 10 12  1  0  0  0
 12 13  2  0  0  0
 13 14  1  0  0  0
 14 15  2  0  0  0
 15 16  1  0  0  0
 15 17  1  0  0  0
 17 18  2  0  0  0
  7  2  1  0  0  0
 35 30  1  0  0  0
 18 12  1  0  0  0
 28 19  1  0  0  0
 18  7  1  0  0  0
 28 23  1  0  0  0
M  END
> <minimizedAffinity>
-9.68585

> <CNNscore>
0.5186858773

> <CNNaffinity>
6.7940216064

> <CNN_VS>
3.5239629745

> <CNNaffinity_variance>
0.1107508093

$$$$



 35 40  0  0  0  0  0  0  0  0999 V2000
    5.9280   -0.8546   27.0093 C   0  0  0  0  0  0  0  0  0  0  0  0
    6.5738   -0.3511   25.7525 C   0  0  0  0  0  0  0  0  0  0  0  0
    8.0628   -0.5311   25.7749 C   0  0  0  0  0  0  0  0  0  0  0  0
    8.6132   -0.0011   24.4841 N   0  0  0  0  0  0  0  0  0  0  0  0
    7.4644    0.5064   23.6640 C   0  0  0  0  0  0  0  0  0  0  0  0
    7.5594    1.1221   22.2994 O   0  0  0  0  0  0  0  0  0  0  0  0
    6.2040    0.2901   24.4478 C   0  0  0  0  0  0  0  0  0  0  0  0
    5.9873    0.9297   23.1085 C   0  0  0  0  0  0  0  0  0  0  0  0
    4.6005    1.2911   22.6655 N   0  0  0  0  0  0  0  0  0  0  0  0
    3.4304    1.0129   23.5618 C   0  0  0  0  0  0  0  0  0  0  0  0
    2.0436    1.3743   23.1189 O   0  0  0  0  0  0  0  0  0  0  0  0
    3.6471    0.3732   24.9013 C   0  0  0  0  0  0  0  0  0  0  0  0
    2.4770    0.0950   25.7976 C   0  0  0  0  0  0  0  0  0  0  0  0
    2.6937   -0.5447   27.1369 C   0  0  0  0  0  0  0  0  0  0  0  0
    4.0805   -0.9061   27.5799 C   0  0  0  0  0  0  0  0  0  0  0  0
    4.2972   -1.5457   28.9193 F   0  0  0  0  0  0  0  0  0  0  0  0
    5.2506   -0.6278   26.6836 C   0  0  0  0  0  0  0  0  0  0  0  0
    5.0339    0.0118   25.3443 C   0  0  0  0  0  0  0  0  0  0  0  0
   10.0587    0.0180   24.0838 C   0  0  0  0  0  0  0  0  0  0  0  0
   10.5385    0.9963   23.0530 C   0  0  0  0  0  0  0  0  0  0  0  0
   11.9840    1.0154   22.6526 N   0  0  0  0  0  0  0  0  0  0  0  0
   12.9496    0.0562   23.2831 C   0  0  0  0  0  0  0  0  0  0  0  0
   12.4697   -0.9221   24.3140 C   0  0  0  0  0  0  0  0  0  0  0  0
   13.4354   -1.8814   24.9445 C   0  0  0  0  0  0  0  0  0  0  0  0
   12.9554   -2.8596   25.9753 C   0  0  0  0  0  0  0  0  0  0  0  0
   11.5100   -2.8787   26.3756 C   0  0  0  0  0  0  0  0  0  0  0  0
   10.5444   -1.9195   25.7451 C   0  0  0  0  0  0  0  0  0  0  0  0
   11.0242   -0.9412   24.7143 C   0  0  0  0  0  0  0  0  0  0  0  0
    4.3838    1.9308   21.3261 C   0  0  0  0  0  0  0  0  0  0  0  0
    4.7325    1.1838   20.0730 C   0  0  0  0  0  0  0  0  0  0  0  0
    4.3657    1.7523   18.7342 C   0  0  0  0  0  0  0  0  0  0  0  0
    4.7144    1.0053   17.4811 C   0  0  0  0  0  0  0  0  0  0  0  0
    5.4300   -0.3103   17.5667 N   0  0  0  0  0  0  0  0  0  0  0  0
    5.7969   -0.8788   18.9055 C   0  0  0  0  0  0  0  0  0  0  0  0
    5.4481   -0.1317   20.1586 N   0  0  0  0  0  0  0  0  0  0  0  0
  2  1  1  0  0  0
  2  3  1  0  0  0
  3  4  1  0  0  0
  4 19  1  0  0  0
 19 20  2  0  0  0
 20 21  1  0  0  0
 21 22  2  0  0  0
 22 23  1  0  0  0
 23 24  2  0  0  0
 24 25  1  0  0  0
 25 26  2  0  0  0
 26 27  1  0  0  0
 27 28  2  0  0  0
  4  5  1  0  0  0
  5  6  2  0  0  0
  5  7  1  0  0  0
  7  8  1  0  0  0
  8  9  1  0  0  0
  9 29  1  0  0  0
 29 30  1  0  0  0
 30 31  2  0  0  0
 31 32  1  0  0  0
 32 33  2  0  0  0
 33 34  1  0  0  0
 34 35  2  0  0  0
  9 10  1  0  0  0
 10 11  2  0  0  0
 10 12  1  0  0  0
 12 13  2  0  0  0
 13 14  1  0  0  0
 14 15  2  0  0  0
 15 16  1  0  0  0
 15 17  1  0  0  0
 17 18  2  0  0  0
  7  2  1  0  0  0
 35 30  1  0  0  0
 18 12  1  0  0  0
 28 19  1  0  0  0
 18  7  1  0  0  0
 28 23  1  0  0  0
M  END
> <minimizedAffinity>
-8.25552

> <CNNscore>
0.4718728960

> <CNNaffinity>
6.5107069016

> <CNN_VS>
3.0722260475

> <CNNaffinity_variance>
0.0286828540

$$$$



 35 40  0  0  0  0  0  0  0  0999 V2000
   10.9703   -3.3604   26.1268 C   0  0  0  0  0  0  0  0  0  0  0  0
    9.5838   -2.8827   25.8112 C   0  0  0  0  0  0  0  0  0  0  0  0
    8.5338   -3.7937   26.3749 C   0  0  0  0  0  0  0  0  0  0  0  0
    7.1906   -3.2352   26.0089 N   0  0  0  0  0  0  0  0  0  0  0  0
    7.4105   -1.9791   25.2190 C   0  0  0  0  0  0  0  0  0  0  0  0
    6.3393   -1.0959   24.6511 O   0  0  0  0  0  0  0  0  0  0  0  0
    8.8896   -1.7612   25.0969 C   0  0  0  0  0  0  0  0  0  0  0  0
    8.0602   -0.7080   24.4241 C   0  0  0  0  0  0  0  0  0  0  0  0
    8.7277    0.4313   23.7126 N   0  0  0  0  0  0  0  0  0  0  0  0
   10.2247    0.5173   23.6737 C   0  0  0  0  0  0  0  0  0  0  0  0
   10.8923    1.6566   22.9622 O   0  0  0  0  0  0  0  0  0  0  0  0
   11.0542   -0.5360   24.3465 C   0  0  0  0  0  0  0  0  0  0  0  0
   12.5512   -0.4500   24.3077 C   0  0  0  0  0  0  0  0  0  0  0  0
   13.3806   -1.5032   24.9804 C   0  0  0  0  0  0  0  0  0  0  0  0
   12.7131   -2.6425   25.6920 C   0  0  0  0  0  0  0  0  0  0  0  0
   13.5426   -3.6958   26.3648 F   0  0  0  0  0  0  0  0  0  0  0  0
   11.2161   -2.7285   25.7308 C   0  0  0  0  0  0  0  0  0  0  0  0
   10.3867   -1.6753   25.0581 C   0  0  0  0  0  0  0  0  0  0  0  0
    5.8610   -3.8287   26.3694 C   0  0  0  0  0  0  0  0  0  0  0  0
    5.0931   -4.6211   25.3535 C   0  0  0  0  0  0  0  0  0  0  0  0
    3.7635   -5.2145   25.7140 N   0  0  0  0  0  0  0  0  0  0  0  0
    3.2019   -5.0154   27.0905 C   0  0  0  0  0  0  0  0  0  0  0  0
    3.9698   -4.2230   28.1066 C   0  0  0  0  0  0  0  0  0  0  0  0
    3.4081   -4.0240   29.4832 C   0  0  0  0  0  0  0  0  0  0  0  0
    4.1762   -3.2315   30.4991 C   0  0  0  0  0  0  0  0  0  0  0  0
    5.5057   -2.6381   30.1385 C   0  0  0  0  0  0  0  0  0  0  0  0
    6.0673   -2.8372   28.7620 C   0  0  0  0  0  0  0  0  0  0  0  0
    5.2995   -3.6296   27.7460 C   0  0  0  0  0  0  0  0  0  0  0  0
    7.8982    1.4846   23.0398 C   0  0  0  0  0  0  0  0  0  0  0  0
    7.5831    2.7632   23.7579 C   0  0  0  0  0  0  0  0  0  0  0  0
    6.8289    2.7292   25.0541 C   0  0  0  0  0  0  0  0  0  0  0  0
    6.5137    4.0078   25.7723 C   0  0  0  0  0  0  0  0  0  0  0  0
    6.9528    5.3205   25.1943 N   0  0  0  0  0  0  0  0  0  0  0  0
    7.7069    5.3546   23.8981 C   0  0  0  0  0  0  0  0  0  0  0  0
    8.0221    4.0759   23.1799 N   0  0  0  0  0  0  0  0  0  0  0  0
  2  1  1  0  0  0
  2  3  1  0  0  0
  3  4  1  0  0  0
  4 19  1  0  0  0
 19 20  2  0  0  0
 20 21  1  0  0  0
 21 22  2  0  0  0
 22 23  1  0  0  0
 23 24  2  0  0  0
 24 25  1  0  0  0
 25 26  2  0  0  0
 26 27  1  0  0  0
 27 28  2  0  0  0
  4  5  1  0  0  0
  5  6  2  0  0  0
  5  7  1  0  0  0
  7  8  1  0  0  0
  8  9  1  0  0  0
  9 29  1  0  0  0
 29 30  1  0  0  0
 30 31  2  0  0  0
 31 32  1  0  0  0
 32 33  2  0  0  0
 33 34  1  0  0  0
 34 35  2  0  0  0
  9 10  1  0  0  0
 10 11  2  0  0  0
 10 12  1  0  0  0
 12 13  2  0  0  0
 13 14  1  0  0  0
 14 15  2  0  0  0
 15 16  1  0  0  0
 15 17  1  0  0  0
 17 18  2  0  0  0
  7  2  1  0  0  0
 35 30  1  0  0  0
 18 12  1  0  0  0
 28 19  1  0  0  0
 18  7  1  0  0  0
 28 23  1  0  0  0
M  END
> <minimizedAffinity>
-8.06255

> <CNNscore>
0.4340002835

> <CNNaffinity>
6.6953086853

> <CNN_VS>
2.9057657719

> <CNNaffinity_variance>
0.2016712427

$$$$



 35 40  0  0  0  0  0  0  0  0999 V2000
    6.7978   -1.1955   20.9005 C   0  0  0  0  0  0  0  0  0  0  0  0
    7.8023   -0.5271   21.7919 C   0  0  0  0  0  0  0  0  0  0  0  0
    8.8370   -1.4902   22.2935 C   0  0  0  0  0  0  0  0  0  0  0  0
    9.7895   -0.7322   23.1700 N   0  0  0  0  0  0  0  0  0  0  0  0
    9.3433    0.6993   23.2101 C   0  0  0  0  0  0  0  0  0  0  0  0
   10.0086    1.8092   23.9688 O   0  0  0  0  0  0  0  0  0  0  0  0
    8.1151    0.8261   22.3584 C   0  0  0  0  0  0  0  0  0  0  0  0
    8.5507    2.1120   22.9961 C   0  0  0  0  0  0  0  0  0  0  0  0
    7.7721    3.3709   22.7535 N   0  0  0  0  0  0  0  0  0  0  0  0
    6.5580    3.3440   21.8730 C   0  0  0  0  0  0  0  0  0  0  0  0
    5.7794    4.6029   21.6304 O   0  0  0  0  0  0  0  0  0  0  0  0
    6.1224    2.0581   21.2352 C   0  0  0  0  0  0  0  0  0  0  0  0
    4.9083    2.0311   20.3548 C   0  0  0  0  0  0  0  0  0  0  0  0
    4.4728    0.7453   19.7170 C   0  0  0  0  0  0  0  0  0  0  0  0
    5.2513   -0.5137   19.9597 C   0  0  0  0  0  0  0  0  0  0  0  0
    4.8158   -1.7996   19.3219 F   0  0  0  0  0  0  0  0  0  0  0  0
    6.4654   -0.4868   20.8401 C   0  0  0  0  0  0  0  0  0  0  0  0
    6.9010    0.7991   21.4779 C   0  0  0  0  0  0  0  0  0  0  0  0
   10.9792   -1.3052   23.8816 C   0  0  0  0  0  0  0  0  0  0  0  0
   12.3651   -0.9467   23.4339 C   0  0  0  0  0  0  0  0  0  0  0  0
   13.5549   -1.5196   24.1455 N   0  0  0  0  0  0  0  0  0  0  0  0
   13.3585   -2.4511   25.3047 C   0  0  0  0  0  0  0  0  0  0  0  0
   11.9725   -2.8096   25.7523 C   0  0  0  0  0  0  0  0  0  0  0  0
   11.7762   -3.7412   26.9116 C   0  0  0  0  0  0  0  0  0  0  0  0
   10.3901   -4.0997   27.3592 C   0  0  0  0  0  0  0  0  0  0  0  0
    9.2005   -3.5267   26.6476 C   0  0  0  0  0  0  0  0  0  0  0  0
    9.3968   -2.5952   25.4884 C   0  0  0  0  0  0  0  0  0  0  0  0
   10.7828   -2.2367   25.0408 C   0  0  0  0  0  0  0  0  0  0  0  0
    8.2077    4.6569   23.3913 C   0  0  0  0  0  0  0  0  0  0  0  0
    9.4922    5.3061   22.9690 C   0  0  0  0  0  0  0  0  0  0  0  0
    9.6077    6.8015   22.9554 C   0  0  0  0  0  0  0  0  0  0  0  0
   10.8923    7.4507   22.5331 C   0  0  0  0  0  0  0  0  0  0  0  0
   12.0615    6.6044   22.1244 N   0  0  0  0  0  0  0  0  0  0  0  0
   11.9460    5.1090   22.1381 C   0  0  0  0  0  0  0  0  0  0  0  0
   10.6613    4.4598   22.5604 N   0  0  0  0  0  0  0  0  0  0  0  0
  2  1  1  0  0  0
  2  3  1  0  0  0
  3  4  1  0  0  0
  4 19  1  0  0  0
 19 20  2  0  0  0
 20 21  1  0  0  0
 21 22  2  0  0  0
 22 23  1  0  0  0
 23 24  2  0  0  0
 24 25  1  0  0  0
 25 26  2  0  0  0
 26 27  1  0  0  0
 27 28  2  0  0  0
  4  5  1  0  0  0
  5  6  2  0  0  0
  5  7  1  0  0  0
  7  8  1  0  0  0
  8  9  1  0  0  0
  9 29  1  0  0  0
 29 30  1  0  0  0
 30 31  2  0  0  0
 31 32  1  0  0  0
 32 33  2  0  0  0
 33 34  1  0  0  0
 34 35  2  0  0  0
  9 10  1  0  0  0
 10 11  2  0  0  0
 10 12  1  0  0  0
 12 13  2  0  0  0
 13 14  1  0  0  0
 14 15  2  0  0  0
 15 16  1  0  0  0
 15 17  1  0  0  0
 17 18  2  0  0  0
  7  2  1  0  0  0
 35 30  1  0  0  0
 18 12  1  0  0  0
 28 19  1  0  0  0
 18  7  1  0  0  0
 28 23  1  0  0  0
M  END
> <minimizedAffinity>
-8.91332

> <CNNscore>
0.2871386111

> <CNNaffinity>
6.5647687912

> <CNN_VS>
1.8849985600

> <CNNaffinity_variance>
0.1672318578

$$$$



 35 40  0  0  0  0  0  0  0  0999 V2000
   10.7537   -3.7381   25.5534 C   0  0  0  0  0  0  0  0  0  0  0  0
    9.5561   -3.4057   24.7136 C   0  0  0  0  0  0  0  0  0  0  0  0
    8.4921   -4.4586   24.8106 C   0  0  0  0  0  0  0  0  0  0  0  0
    7.3438   -4.0384   23.9418 N   0  0  0  0  0  0  0  0  0  0  0  0
    7.6981   -2.7259   23.3079 C   0  0  0  0  0  0  0  0  0  0  0  0
    6.8363   -1.9421   22.3629 O   0  0  0  0  0  0  0  0  0  0  0  0
    9.0654   -2.3349   23.7849 C   0  0  0  0  0  0  0  0  0  0  0  0
    8.4438   -1.3492   22.8404 C   0  0  0  0  0  0  0  0  0  0  0  0
    9.1894   -0.1057   22.4562 N   0  0  0  0  0  0  0  0  0  0  0  0
   10.5567    0.1522   23.0164 C   0  0  0  0  0  0  0  0  0  0  0  0
   11.3024    1.3957   22.6322 O   0  0  0  0  0  0  0  0  0  0  0  0
   11.1784   -0.8334   23.9609 C   0  0  0  0  0  0  0  0  0  0  0  0
   12.5458   -0.5755   24.5211 C   0  0  0  0  0  0  0  0  0  0  0  0
   13.1674   -1.5611   25.4656 C   0  0  0  0  0  0  0  0  0  0  0  0
   12.4218   -2.8047   25.8498 C   0  0  0  0  0  0  0  0  0  0  0  0
   13.0435   -3.7903   26.7944 F   0  0  0  0  0  0  0  0  0  0  0  0
   11.0544   -3.0626   25.2896 C   0  0  0  0  0  0  0  0  0  0  0  0
   10.4328   -2.0770   24.3452 C   0  0  0  0  0  0  0  0  0  0  0  0
    6.0655   -4.7975   23.7420 C   0  0  0  0  0  0  0  0  0  0  0  0
    5.7684   -5.4298   22.4147 C   0  0  0  0  0  0  0  0  0  0  0  0
    4.4902   -6.1889   22.2149 N   0  0  0  0  0  0  0  0  0  0  0  0
    3.5091   -6.3155   23.3425 C   0  0  0  0  0  0  0  0  0  0  0  0
    3.8062   -5.6831   24.6698 C   0  0  0  0  0  0  0  0  0  0  0  0
    2.8250   -5.8097   25.7974 C   0  0  0  0  0  0  0  0  0  0  0  0
    3.1222   -5.1773   27.1247 C   0  0  0  0  0  0  0  0  0  0  0  0
    4.4004   -4.4183   27.3244 C   0  0  0  0  0  0  0  0  0  0  0  0
    5.3815   -4.2917   26.1968 C   0  0  0  0  0  0  0  0  0  0  0  0
    5.0844   -4.9240   24.8696 C   0  0  0  0  0  0  0  0  0  0  0  0
    8.5677    0.8799   21.5117 C   0  0  0  0  0  0  0  0  0  0  0  0
    7.2054    0.6162   20.9421 C   0  0  0  0  0  0  0  0  0  0  0  0
    5.9809    1.0184   21.7094 C   0  0  0  0  0  0  0  0  0  0  0  0
    4.6185    0.7547   21.1398 C   0  0  0  0  0  0  0  0  0  0  0  0
    4.4807    0.0887   19.8028 N   0  0  0  0  0  0  0  0  0  0  0  0
    5.7051   -0.3136   19.0355 C   0  0  0  0  0  0  0  0  0  0  0  0
    7.0675   -0.0498   19.6052 N   0  0  0  0  0  0  0  0  0  0  0  0
  2  1  1  0  0  0
  2  3  1  0  0  0
  3  4  1  0  0  0
  4 19  1  0  0  0
 19 20  2  0  0  0
 20 21  1  0  0  0
 21 22  2  0  0  0
 22 23  1  0  0  0
 23 24  2  0  0  0
 24 25  1  0  0  0
 25 26  2  0  0  0
 26 27  1  0  0  0
 27 28  2  0  0  0
  4  5  1  0  0  0
  5  6  2  0  0  0
  5  7  1  0  0  0
  7  8  1  0  0  0
  8  9  1  0  0  0
  9 29  1  0  0  0
 29 30  1  0  0  0
 30 31  2  0  0  0
 31 32  1  0  0  0
 32 33  2  0  0  0
 33 34  1  0  0  0
 34 35  2  0  0  0
  9 10  1  0  0  0
 10 11  2  0  0  0
 10 12  1  0  0  0
 12 13  2  0  0  0
 13 14  1  0  0  0
 14 15  2  0  0  0
 15 16  1  0  0  0
 15 17  1  0  0  0
 17 18  2  0  0  0
  7  2  1  0  0  0
 35 30  1  0  0  0
 18 12  1  0  0  0
 28 19  1  0  0  0
 18  7  1  0  0  0
 28 23  1  0  0  0
M  END
> <minimizedAffinity>
-9.43814

> <CNNscore>
0.2857182324

> <CNNaffinity>
6.5208959579

> <CNN_VS>
1.8631389141

> <CNNaffinity_variance>
0.1566826254

$$$$



 35 40  0  0  0  0  0  0  0  0999 V2000
    3.9902   -0.3806   25.8084 C   0  0  0  0  0  0  0  0  0  0  0  0
    4.9568   -0.6886   24.7035 C   0  0  0  0  0  0  0  0  0  0  0  0
    4.5217   -0.0975   23.3953 C   0  0  0  0  0  0  0  0  0  0  0  0
    5.5459   -0.4579   22.3603 N   0  0  0  0  0  0  0  0  0  0  0  0
    6.6140   -1.2717   23.0289 C   0  0  0  0  0  0  0  0  0  0  0  0
    7.8323   -1.8426   22.3657 O   0  0  0  0  0  0  0  0  0  0  0  0
    6.2499   -1.4143   24.4770 C   0  0  0  0  0  0  0  0  0  0  0  0
    7.5320   -2.0956   24.1004 C   0  0  0  0  0  0  0  0  0  0  0  0
    8.3223   -2.8342   25.1396 N   0  0  0  0  0  0  0  0  0  0  0  0
    7.8304   -2.8914   26.5555 C   0  0  0  0  0  0  0  0  0  0  0  0
    8.6207   -3.6300   27.5947 O   0  0  0  0  0  0  0  0  0  0  0  0
    6.5483   -2.2101   26.9322 C   0  0  0  0  0  0  0  0  0  0  0  0
    6.0564   -2.2673   28.3481 C   0  0  0  0  0  0  0  0  0  0  0  0
    4.7743   -1.5859   28.7248 C   0  0  0  0  0  0  0  0  0  0  0  0
    3.9841   -0.8474   27.6855 C   0  0  0  0  0  0  0  0  0  0  0  0
    2.7019   -0.1660   28.0623 F   0  0  0  0  0  0  0  0  0  0  0  0
    4.4759   -0.7901   26.2697 C   0  0  0  0  0  0  0  0  0  0  0  0
    5.7580   -1.4715   25.8930 C   0  0  0  0  0  0  0  0  0  0  0  0
    5.5086   -0.0722   20.9113 C   0  0  0  0  0  0  0  0  0  0  0  0
    6.5446   -0.6049   19.9665 C   0  0  0  0  0  0  0  0  0  0  0  0
    6.5073   -0.2192   18.5174 N   0  0  0  0  0  0  0  0  0  0  0  0
    5.4339    0.6993   18.0132 C   0  0  0  0  0  0  0  0  0  0  0  0
    4.3979    1.2321   18.9581 C   0  0  0  0  0  0  0  0  0  0  0  0
    3.3245    2.1506   18.4538 C   0  0  0  0  0  0  0  0  0  0  0  0
    2.2885    2.6834   19.3987 C   0  0  0  0  0  0  0  0  0  0  0  0
    2.3259    2.2977   20.8477 C   0  0  0  0  0  0  0  0  0  0  0  0
    3.3992    1.3792   21.3519 C   0  0  0  0  0  0  0  0  0  0  0  0
    4.4352    0.8464   20.4071 C   0  0  0  0  0  0  0  0  0  0  0  0
    9.6044   -3.5156   24.7628 C   0  0  0  0  0  0  0  0  0  0  0  0
   10.9187   -2.8510   25.0474 C   0  0  0  0  0  0  0  0  0  0  0  0
   11.3199   -1.6243   24.2830 C   0  0  0  0  0  0  0  0  0  0  0  0
   12.6341   -0.9597   24.5676 C   0  0  0  0  0  0  0  0  0  0  0  0
   13.5473   -1.5218   25.6166 N   0  0  0  0  0  0  0  0  0  0  0  0
   13.1461   -2.7484   26.3810 C   0  0  0  0  0  0  0  0  0  0  0  0
   11.8317   -3.4130   26.0964 N   0  0  0  0  0  0  0  0  0  0  0  0
  2  1  1  0  0  0
  2  3  1  0  0  0
  3  4  1  0  0  0
  4 19  1  0  0  0
 19 20  2  0  0  0
 20 21  1  0  0  0
 21 22  2  0  0  0
 22 23  1  0  0  0
 23 24  2  0  0  0
 24 25  1  0  0  0
 25 26  2  0  0  0
 26 27  1  0  0  0
 27 28  2  0  0  0
  4  5  1  0  0  0
  5  6  2  0  0  0
  5  7  1  0  0  0
  7  8  1  0  0  0
  8  9  1  0  0  0
  9 29  1  0  0  0
 29 30  1  0  0  0
 30 31  2  0  0  0
 31 32  1  0  0  0
 32 33  2  0  0  0
 33 34  1  0  0  0
 34 35  2  0  0  0
  9 10  1  0  0  0
 10 11  2  0  0  0
 10 12  1  0  0  0
 12 13  2  0  0  0
 13 14  1  0  0  0
 14 15  2  0  0  0
 15 16  1  0  0  0
 15 17  1  0  0  0
 17 18  2  0  0  0
  7  2  1  0  0  0
 35 30  1  0  0  0
 18 12  1  0  0  0
 28 19  1  0  0  0
 18  7  1  0  0  0
 28 23  1  0  0  0
M  END
> <minimizedAffinity>
-8.39169

> <CNNscore>
0.2318001688

> <CNNaffinity>
6.1071171761

> <CNN_VS>
1.4156308174

> <CNNaffinity_variance>
0.0693643391

$$$$



 35 40  0  0  0  0  0  0  0  0999 V2000
   10.6669   -1.8837   25.4666 C   0  0  0  0  0  0  0  0  0  0  0  0
    9.1881   -1.9173   25.2174 C   0  0  0  0  0  0  0  0  0  0  0  0
    8.5077   -2.9887   26.0169 C   0  0  0  0  0  0  0  0  0  0  0  0
    7.0421   -2.9425   25.7012 N   0  0  0  0  0  0  0  0  0  0  0  0
    6.8166   -1.8426   24.7066 C   0  0  0  0  0  0  0  0  0  0  0  0
    5.4965   -1.4460   24.1148 O   0  0  0  0  0  0  0  0  0  0  0  0
    8.1429   -1.2089   24.4075 C   0  0  0  0  0  0  0  0  0  0  0  0
    6.9932   -0.5982   23.6625 C   0  0  0  0  0  0  0  0  0  0  0  0
    7.2323    0.5433   22.7192 N   0  0  0  0  0  0  0  0  0  0  0  0
    8.6212    1.0741   22.5210 C   0  0  0  0  0  0  0  0  0  0  0  0
    8.8603    2.2157   21.5778 O   0  0  0  0  0  0  0  0  0  0  0  0
    9.7710    0.4634   23.2661 C   0  0  0  0  0  0  0  0  0  0  0  0
   11.1598    0.9942   23.0679 C   0  0  0  0  0  0  0  0  0  0  0  0
   12.3095    0.3835   23.8129 C   0  0  0  0  0  0  0  0  0  0  0  0
   12.0704   -0.7581   24.7562 C   0  0  0  0  0  0  0  0  0  0  0  0
   13.2202   -1.3688   25.5013 F   0  0  0  0  0  0  0  0  0  0  0  0
   10.6815   -1.2889   24.9544 C   0  0  0  0  0  0  0  0  0  0  0  0
    9.5318   -0.6781   24.2094 C   0  0  0  0  0  0  0  0  0  0  0  0
    5.9871   -3.8389   26.2787 C   0  0  0  0  0  0  0  0  0  0  0  0
    5.4251   -4.9614   25.4578 C   0  0  0  0  0  0  0  0  0  0  0  0
    4.3701   -5.8577   26.0353 N   0  0  0  0  0  0  0  0  0  0  0  0
    3.8772   -5.6315   27.4338 C   0  0  0  0  0  0  0  0  0  0  0  0
    4.4392   -4.5090   28.2548 C   0  0  0  0  0  0  0  0  0  0  0  0
    3.9462   -4.2828   29.6534 C   0  0  0  0  0  0  0  0  0  0  0  0
    4.5083   -3.1602   30.4743 C   0  0  0  0  0  0  0  0  0  0  0  0
    5.5633   -2.2639   29.8967 C   0  0  0  0  0  0  0  0  0  0  0  0
    6.0562   -2.4901   28.4982 C   0  0  0  0  0  0  0  0  0  0  0  0
    5.4942   -3.6126   27.6773 C   0  0  0  0  0  0  0  0  0  0  0  0
    6.0825    1.1541   21.9742 C   0  0  0  0  0  0  0  0  0  0  0  0
    5.8453    0.7962   20.5370 C   0  0  0  0  0  0  0  0  0  0  0  0
    4.7063    1.4206   19.7868 C   0  0  0  0  0  0  0  0  0  0  0  0
    4.4690    1.0627   18.3496 C   0  0  0  0  0  0  0  0  0  0  0  0
    5.3708    0.0805   17.6625 N   0  0  0  0  0  0  0  0  0  0  0  0
    6.5099   -0.5439   18.4127 C   0  0  0  0  0  0  0  0  0  0  0  0
    6.7471   -0.1860   19.8500 N   0  0  0  0  0  0  0  0  0  0  0  0
  2  1  1  0  0  0
  2  3  1  0  0  0
  3  4  1  0  0  0
  4 19  1  0  0  0
 19 20  2  0  0  0
 20 21  1  0  0  0
 21 22  2  0  0  0
 22 23  1  0  0  0
 23 24  2  0  0  0
 24 25  1  0  0  0
 25 26  2  0  0  0
 26 27  1  0  0  0
 27 28  2  0  0  0
  4  5  1  0  0  0
  5  6  2  0  0  0
  5  7  1  0  0  0
  7  8  1  0  0  0
  8  9  1  0  0  0
  9 29  1  0  0  0
 29 30  1  0  0  0
 30 31  2  0  0  0
 31 32  1  0  0  0
 32 33  2  0  0  0
 33 34  1  0  0  0
 34 35  2  0  0  0
  9 10  1  0  0  0
 10 11  2  0  0  0
 10 12  1  0  0  0
 12 13  2  0  0  0
 13 14  1  0  0  0
 14 15  2  0  0  0
 15 16  1  0  0  0
 15 17  1  0  0  0
 17 18  2  0  0  0
  7  2  1  0  0  0
 35 30  1  0  0  0
 18 12  1  0  0  0
 28 19  1  0  0  0
 18  7  1  0  0  0
 28 23  1  0  0  0
M  END
> <minimizedAffinity>
-9.05590

> <CNNscore>
0.2316774130

> <CNNaffinity>
6.2249259949

> <CNN_VS>
1.4421747923

> <CNNaffinity_variance>
0.1005065590

$$$$



 35 40  0  0  0  0  0  0  0  0999 V2000
    7.0374   -0.1442   19.8358 C   0  0  0  0  0  0  0  0  0  0  0  0
    7.5303    0.1838   21.2141 C   0  0  0  0  0  0  0  0  0  0  0  0
    8.8327   -0.4940   21.5212 C   0  0  0  0  0  0  0  0  0  0  0  0
    9.2402   -0.1067   22.9118 N   0  0  0  0  0  0  0  0  0  0  0  0
    8.1897    0.8105   23.4642 C   0  0  0  0  0  0  0  0  0  0  0  0
    8.1951    1.4380   24.8266 O   0  0  0  0  0  0  0  0  0  0  0  0
    7.1329    0.9900   22.4150 C   0  0  0  0  0  0  0  0  0  0  0  0
    6.8673    1.7448   23.6838 C   0  0  0  0  0  0  0  0  0  0  0  0
    5.6303    2.5833   23.8127 N   0  0  0  0  0  0  0  0  0  0  0  0
    4.6588    2.6672   22.6729 C   0  0  0  0  0  0  0  0  0  0  0  0
    3.4218    3.5057   22.8019 O   0  0  0  0  0  0  0  0  0  0  0  0
    4.9244    1.9124   21.4041 C   0  0  0  0  0  0  0  0  0  0  0  0
    3.9529    1.9962   20.2643 C   0  0  0  0  0  0  0  0  0  0  0  0
    4.2185    1.2415   18.9955 C   0  0  0  0  0  0  0  0  0  0  0  0
    5.4555    0.4030   18.8665 C   0  0  0  0  0  0  0  0  0  0  0  0
    5.7210   -0.3518   17.5977 F   0  0  0  0  0  0  0  0  0  0  0  0
    6.4269    0.3191   20.0063 C   0  0  0  0  0  0  0  0  0  0  0  0
    6.1614    1.0739   21.2751 C   0  0  0  0  0  0  0  0  0  0  0  0
   10.4806   -0.5574   23.6249 C   0  0  0  0  0  0  0  0  0  0  0  0
   11.8029    0.0715   23.2999 C   0  0  0  0  0  0  0  0  0  0  0  0
   13.0432   -0.3792   24.0130 N   0  0  0  0  0  0  0  0  0  0  0  0
   12.9611   -1.4589   25.0510 C   0  0  0  0  0  0  0  0  0  0  0  0
   11.6386   -2.0878   25.3761 C   0  0  0  0  0  0  0  0  0  0  0  0
   11.5565   -3.1675   26.4142 C   0  0  0  0  0  0  0  0  0  0  0  0
   10.2340   -3.7963   26.7392 C   0  0  0  0  0  0  0  0  0  0  0  0
    8.9938   -3.3456   26.0261 C   0  0  0  0  0  0  0  0  0  0  0  0
    9.0760   -2.2659   24.9880 C   0  0  0  0  0  0  0  0  0  0  0  0
   10.3983   -1.6371   24.6630 C   0  0  0  0  0  0  0  0  0  0  0  0
    5.3648    3.3381   25.0816 C   0  0  0  0  0  0  0  0  0  0  0  0
    5.3018    2.6071   26.3899 C   0  0  0  0  0  0  0  0  0  0  0  0
    4.1851    1.6418   26.6566 C   0  0  0  0  0  0  0  0  0  0  0  0
    4.1221    0.9108   27.9649 C   0  0  0  0  0  0  0  0  0  0  0  0
    5.1758    1.1450   29.0065 N   0  0  0  0  0  0  0  0  0  0  0  0
    6.2925    2.1103   28.7397 C   0  0  0  0  0  0  0  0  0  0  0  0
    6.3555    2.8414   27.4314 N   0  0  0  0  0  0  0  0  0  0  0  0
  2  1  1  0  0  0
  2  3  1  0  0  0
  3  4  1  0  0  0
  4 19  1  0  0  0
 19 20  2  0  0  0
 20 21  1  0  0  0
 21 22  2  0  0  0
 22 23  1  0  0  0
 23 24  2  0  0  0
 24 25  1  0  0  0
 25 26  2  0  0  0
 26 27  1  0  0  0
 27 28  2  0  0  0
  4  5  1  0  0  0
  5  6  2  0  0  0
  5  7  1  0  0  0
  7  8  1  0  0  0
  8  9  1  0  0  0
  9 29  1  0  0  0
 29 30  1  0  0  0
 30 31  2  0  0  0
 31 32  1  0  0  0
 32 33  2  0  0  0
 33 34  1  0  0  0
 34 35  2  0  0  0
  9 10  1  0  0  0
 10 11  2  0  0  0
 10 12  1  0  0  0
 12 13  2  0  0  0
 13 14  1  0  0  0
 14 15  2  0  0  0
 15 16  1  0  0  0
 15 17  1  0  0  0
 17 18  2  0  0  0
  7  2  1  0  0  0
 35 30  1  0  0  0
 18 12  1  0  0  0
 28 19  1  0  0  0
 18  7  1  0  0  0
 28 23  1  0  0  0
M  END
> <minimizedAffinity>
-8.44509

> <CNNscore>
0.2193883508

> <CNNaffinity>
6.2102093697

> <CNN_VS>
1.3624476194

> <CNNaffinity_variance>
0.1782294363

$$$$



 35 40  0  0  0  0  0  0  0  0999 V2000
   10.4227    0.3235   22.7299 C   0  0  0  0  0  0  0  0  0  0  0  0
    9.1052   -0.2504   22.3000 C   0  0  0  0  0  0  0  0  0  0  0  0
    8.4001    0.6363   21.3167 C   0  0  0  0  0  0  0  0  0  0  0  0
    7.1017   -0.0191   20.9497 N   0  0  0  0  0  0  0  0  0  0  0  0
    7.0044   -1.3107   21.7061 C   0  0  0  0  0  0  0  0  0  0  0  0
    5.8682   -2.2878   21.6397 O   0  0  0  0  0  0  0  0  0  0  0  0
    8.2426   -1.4537   22.5407 C   0  0  0  0  0  0  0  0  0  0  0  0
    7.2779   -2.5938   22.6801 C   0  0  0  0  0  0  0  0  0  0  0  0
    7.5974   -3.7390   23.5947 N   0  0  0  0  0  0  0  0  0  0  0  0
    8.8815   -3.7440   24.3699 C   0  0  0  0  0  0  0  0  0  0  0  0
    9.2010   -4.8892   25.2845 O   0  0  0  0  0  0  0  0  0  0  0  0
    9.8463   -2.6039   24.2304 C   0  0  0  0  0  0  0  0  0  0  0  0
   11.1304   -2.6089   25.0056 C   0  0  0  0  0  0  0  0  0  0  0  0
   12.0951   -1.4688   24.8661 C   0  0  0  0  0  0  0  0  0  0  0  0
   11.7756   -0.3236   23.9515 C   0  0  0  0  0  0  0  0  0  0  0  0
   12.7404    0.8165   23.8120 F   0  0  0  0  0  0  0  0  0  0  0  0
   10.4915   -0.3186   23.1763 C   0  0  0  0  0  0  0  0  0  0  0  0
    9.5268   -1.4587   23.3158 C   0  0  0  0  0  0  0  0  0  0  0  0
    6.0801    0.5222   19.9941 C   0  0  0  0  0  0  0  0  0  0  0  0
    6.0524    0.0407   18.5738 C   0  0  0  0  0  0  0  0  0  0  0  0
    5.0307    0.5819   17.6181 N   0  0  0  0  0  0  0  0  0  0  0  0
    4.0368    1.6047   18.0829 C   0  0  0  0  0  0  0  0  0  0  0  0
    4.0645    2.0862   19.5032 C   0  0  0  0  0  0  0  0  0  0  0  0
    3.0704    3.1090   19.9680 C   0  0  0  0  0  0  0  0  0  0  0  0
    3.0982    3.5904   21.3883 C   0  0  0  0  0  0  0  0  0  0  0  0
    4.1198    3.0491   22.3439 C   0  0  0  0  0  0  0  0  0  0  0  0
    5.1138    2.0264   21.8792 C   0  0  0  0  0  0  0  0  0  0  0  0
    5.0861    1.5449   20.4589 C   0  0  0  0  0  0  0  0  0  0  0  0
    6.6326   -4.8791   23.7342 C   0  0  0  0  0  0  0  0  0  0  0  0
    5.7524   -4.9729   24.9451 C   0  0  0  0  0  0  0  0  0  0  0  0
    5.5367   -3.7671   25.8108 C   0  0  0  0  0  0  0  0  0  0  0  0
    4.6565   -3.8609   27.0217 C   0  0  0  0  0  0  0  0  0  0  0  0
    3.9919   -5.1606   27.3670 N   0  0  0  0  0  0  0  0  0  0  0  0
    4.2076   -6.3665   26.5013 C   0  0  0  0  0  0  0  0  0  0  0  0
    5.0878   -6.2726   25.2903 N   0  0  0  0  0  0  0  0  0  0  0  0
  2  1  1  0  0  0
  2  3  1  0  0  0
  3  4  1  0  0  0
  4 19  1  0  0  0
 19 20  2  0  0  0
 20 21  1  0  0  0
 21 22  2  0  0  0
 22 23  1  0  0  0
 23 24  2  0  0  0
 24 25  1  0  0  0
 25 26  2  0  0  0
 26 27  1  0  0  0
 27 28  2  0  0  0
  4  5  1  0  0  0
  5  6  2  0  0  0
  5  7  1  0  0  0
  7  8  1  0  0  0
  8  9  1  0  0  0
  9 29  1  0  0  0
 29 30  1  0  0  0
 30 31  2  0  0  0
 31 32  1  0  0  0
 32 33  2  0  0  0
 33 34  1  0  0  0
 34 35  2  0  0  0
  9 10  1  0  0  0
 10 11  2  0  0  0
 10 12  1  0  0  0
 12 13  2  0  0  0
 13 14  1  0  0  0
 14 15  2  0  0  0
 15 16  1  0  0  0
 15 17  1  0  0  0
 17 18  2  0  0  0
  7  2  1  0  0  0
 35 30  1  0  0  0
 18 12  1  0  0  0
 28 19  1  0  0  0
 18  7  1  0  0  0
 28 23  1  0  0  0
M  END
> <minimizedAffinity>
-9.05155

> <CNNscore>
0.2187249810

> <CNNaffinity>
6.4556474686

> <CNN_VS>
1.4120113850

> <CNNaffinity_variance>
0.0685354620

$$$$
