


 35 40  0  0  0  0  0  0  0  0999 V2000
   -9.6067   -2.5071  -23.6600 C   0  0  0  0  0  0  0  0  0  0  0  0
   -8.3419   -2.7311  -22.8852 C   0  0  0  0  0  0  0  0  0  0  0  0
   -8.0615   -1.6086  -21.9306 C   0  0  0  0  0  0  0  0  0  0  0  0
   -6.7853   -1.9227  -21.2077 N   0  0  0  0  0  0  0  0  0  0  0  0
   -6.2770   -3.2394  -21.7156 C   0  0  0  0  0  0  0  0  0  0  0  0
   -5.0261   -3.9344  -21.2657 O   0  0  0  0  0  0  0  0  0  0  0  0
   -7.2390   -3.7390  -22.7524 C   0  0  0  0  0  0  0  0  0  0  0  0
   -6.0738   -4.6522  -22.5108 C   0  0  0  0  0  0  0  0  0  0  0  0
   -5.9540   -5.9346  -23.2797 N   0  0  0  0  0  0  0  0  0  0  0  0
   -6.9992   -6.3037  -24.2902 C   0  0  0  0  0  0  0  0  0  0  0  0
   -6.8794   -7.5860  -25.0591 O   0  0  0  0  0  0  0  0  0  0  0  0
   -8.1645   -5.3905  -24.5318 C   0  0  0  0  0  0  0  0  0  0  0  0
   -9.2098   -5.7596  -25.5423 C   0  0  0  0  0  0  0  0  0  0  0  0
  -10.3749   -4.8464  -25.7838 C   0  0  0  0  0  0  0  0  0  0  0  0
  -10.4948   -3.5640  -25.0149 C   0  0  0  0  0  0  0  0  0  0  0  0
  -11.6600   -2.6508  -25.2565 F   0  0  0  0  0  0  0  0  0  0  0  0
   -9.4495   -3.1949  -24.0045 C   0  0  0  0  0  0  0  0  0  0  0  0
   -8.2843   -4.1081  -23.7629 C   0  0  0  0  0  0  0  0  0  0  0  0
   -6.1321   -1.0699  -20.1608 C   0  0  0  0  0  0  0  0  0  0  0  0
   -6.6533   -1.0783  -18.7543 C   0  0  0  0  0  0  0  0  0  0  0  0
   -6.0001   -0.2255  -17.7074 N   0  0  0  0  0  0  0  0  0  0  0  0
   -4.8257    0.6356  -18.0670 C   0  0  0  0  0  0  0  0  0  0  0  0
   -4.3045    0.6439  -19.4735 C   0  0  0  0  0  0  0  0  0  0  0  0
   -3.1301    1.5051  -19.8331 C   0  0  0  0  0  0  0  0  0  0  0  0
   -2.6090    1.5134  -21.2397 C   0  0  0  0  0  0  0  0  0  0  0  0
   -3.2622    0.6606  -22.2865 C   0  0  0  0  0  0  0  0  0  0  0  0
   -4.4366   -0.2005  -21.9269 C   0  0  0  0  0  0  0  0  0  0  0  0
   -4.9577   -0.2088  -20.5205 C   0  0  0  0  0  0  0  0  0  0  0  0
   -4.7887   -6.8478  -23.0381 C   0  0  0  0  0  0  0  0  0  0  0  0
   -3.5440   -6.7099  -23.8636 C   0  0  0  0  0  0  0  0  0  0  0  0
   -2.2134   -7.0880  -23.2833 C   0  0  0  0  0  0  0  0  0  0  0  0
   -0.9687   -6.9500  -24.1089 C   0  0  0  0  0  0  0  0  0  0  0  0
   -1.0544   -6.4341  -25.5148 N   0  0  0  0  0  0  0  0  0  0  0  0
   -2.3850   -6.0560  -26.0951 C   0  0  0  0  0  0  0  0  0  0  0  0
   -3.6298   -6.1940  -25.2695 N   0  0  0  0  0  0  0  0  0  0  0  0
  2  1  1  0  0  0
  2  3  1  0  0  0
  3  4  1  0  0  0
  4 19  1  0  0  0
 19 20  2  0  0  0
 20 21  1  0  0  0
 21 22  2  0  0  0
 22 23  1  0  0  0
 23 24  2  0  0  0
 24 25  1  0  0  0
 25 26  2  0  0  0
 26 27  1  0  0  0
 27 28  2  0  0  0
  4  5  1  0  0  0
  5  6  2  0  0  0
  5  7  1  0  0  0
  7  8  1  0  0  0
  8  9  1  0  0  0
  9 29  1  0  0  0
 29 30  1  0  0  0
 30 31  2  0  0  0
 31 32  1  0  0  0
 32 33  2  0  0  0
 33 34  1  0  0  0
 34 35  2  0  0  0
  9 10  1  0  0  0
 10 11  2  0  0  0
 10 12  1  0  0  0
 12 13  2  0  0  0
 13 14  1  0  0  0
 14 15  2  0  0  0
 15 16  1  0  0  0
 15 17  1  0  0  0
 17 18  2  0  0  0
  7  2  1  0  0  0
 35 30  1  0  0  0
 18 12  1  0  0  0
 28 19  1  0  0  0
 18  7  1  0  0  0
 28 23  1  0  0  0
M  END
> <minimizedAffinity>
-8.56564

> <CNNscore>
0.5013842583

> <CNNaffinity>
6.6037817001

> <CNN_VS>
3.3110322952

> <CNNaffinity_variance>
0.0767481998

$$$$



 35 40  0  0  0  0  0  0  0  0999 V2000
   -7.2860   -0.0173  -20.9636 C   0  0  0  0  0  0  0  0  0  0  0  0
   -8.4344   -0.1797  -21.9149 C   0  0  0  0  0  0  0  0  0  0  0  0
   -9.2536    1.0719  -22.0256 C   0  0  0  0  0  0  0  0  0  0  0  0
  -10.3699    0.8112  -22.9930 N   0  0  0  0  0  0  0  0  0  0  0  0
  -10.2406   -0.6016  -23.4802 C   0  0  0  0  0  0  0  0  0  0  0  0
  -11.1481   -1.2824  -24.4614 O   0  0  0  0  0  0  0  0  0  0  0  0
   -9.0443   -1.2140  -22.8139 C   0  0  0  0  0  0  0  0  0  0  0  0
   -9.7617   -2.1402  -23.7506 C   0  0  0  0  0  0  0  0  0  0  0  0
   -9.2630   -3.5410  -23.9486 N   0  0  0  0  0  0  0  0  0  0  0  0
   -8.0469   -4.0155  -23.2098 C   0  0  0  0  0  0  0  0  0  0  0  0
   -7.5482   -5.4163  -23.4077 O   0  0  0  0  0  0  0  0  0  0  0  0
   -7.3295   -3.0894  -22.2729 C   0  0  0  0  0  0  0  0  0  0  0  0
   -6.1134   -3.5640  -21.5341 C   0  0  0  0  0  0  0  0  0  0  0  0
   -5.3960   -2.6378  -20.5974 C   0  0  0  0  0  0  0  0  0  0  0  0
   -5.8947   -1.2370  -20.3994 C   0  0  0  0  0  0  0  0  0  0  0  0
   -5.1773   -0.3109  -19.4626 F   0  0  0  0  0  0  0  0  0  0  0  0
   -7.1108   -0.7624  -21.1382 C   0  0  0  0  0  0  0  0  0  0  0  0
   -7.8282   -1.6886  -22.0750 C   0  0  0  0  0  0  0  0  0  0  0  0
  -11.4295    1.7911  -23.4015 C   0  0  0  0  0  0  0  0  0  0  0  0
  -12.8181    1.6685  -22.8478 C   0  0  0  0  0  0  0  0  0  0  0  0
  -13.8777    2.6484  -23.2563 N   0  0  0  0  0  0  0  0  0  0  0  0
  -13.5487    3.7510  -24.2185 C   0  0  0  0  0  0  0  0  0  0  0  0
  -12.1600    3.8737  -24.7723 C   0  0  0  0  0  0  0  0  0  0  0  0
  -11.8310    4.9763  -25.7346 C   0  0  0  0  0  0  0  0  0  0  0  0
  -10.4423    5.0989  -26.2883 C   0  0  0  0  0  0  0  0  0  0  0  0
   -9.3828    4.1190  -25.8798 C   0  0  0  0  0  0  0  0  0  0  0  0
   -9.7118    3.0164  -24.9175 C   0  0  0  0  0  0  0  0  0  0  0  0
  -11.1004    2.8937  -24.3638 C   0  0  0  0  0  0  0  0  0  0  0  0
   -9.9804   -4.4671  -24.8854 C   0  0  0  0  0  0  0  0  0  0  0  0
   -9.2685   -5.0211  -26.0838 C   0  0  0  0  0  0  0  0  0  0  0  0
   -9.8588   -6.1742  -26.8402 C   0  0  0  0  0  0  0  0  0  0  0  0
   -9.1469   -6.7281  -28.0386 C   0  0  0  0  0  0  0  0  0  0  0  0
   -7.8446   -6.1291  -28.4807 N   0  0  0  0  0  0  0  0  0  0  0  0
   -7.2544   -4.9760  -27.7243 C   0  0  0  0  0  0  0  0  0  0  0  0
   -7.9664   -4.4221  -26.5259 N   0  0  0  0  0  0  0  0  0  0  0  0
  2  1  1  0  0  0
  2  3  1  0  0  0
  3  4  1  0  0  0
  4 19  1  0  0  0
 19 20  2  0  0  0
 20 21  1  0  0  0
 21 22  2  0  0  0
 22 23  1  0  0  0
 23 24  2  0  0  0
 24 25  1  0  0  0
 25 26  2  0  0  0
 26 27  1  0  0  0
 27 28  2  0  0  0
  4  5  1  0  0  0
  5  6  2  0  0  0
  5  7  1  0  0  0
  7  8  1  0  0  0
  8  9  1  0  0  0
  9 29  1  0  0  0
 29 30  1  0  0  0
 30 31  2  0  0  0
 31 32  1  0  0  0
 32 33  2  0  0  0
 33 34  1  0  0  0
 34 35  2  0  0  0
  9 10  1  0  0  0
 10 11  2  0  0  0
 10 12  1  0  0  0
 12 13  2  0  0  0
 13 14  1  0  0  0
 14 15  2  0  0  0
 15 16  1  0  0  0
 15 17  1  0  0  0
 17 18  2  0  0  0
  7  2  1  0  0  0
 35 30  1  0  0  0
 18 12  1  0  0  0
 28 19  1  0  0  0
 18  7  1  0  0  0
 28 23  1  0  0  0
M  END
> <minimizedAffinity>
-8.68580

> <CNNscore>
0.3381788731

> <CNNaffinity>
6.2075929642

> <CNN_VS>
2.0992767811

> <CNNaffinity_variance>
0.2620534301

$$$$



 35 40  0  0  0  0  0  0  0  0999 V2000
   -5.8195   -5.3238  -23.2755 C   0  0  0  0  0  0  0  0  0  0  0  0
   -6.4687   -4.1108  -22.6777 C   0  0  0  0  0  0  0  0  0  0  0  0
   -5.5823   -3.4371  -21.6725 C   0  0  0  0  0  0  0  0  0  0  0  0
   -6.3148   -2.2436  -21.1349 N   0  0  0  0  0  0  0  0  0  0  0  0
   -7.6538   -2.1797  -21.8079 C   0  0  0  0  0  0  0  0  0  0  0  0
   -8.7120   -1.1437  -21.5692 O   0  0  0  0  0  0  0  0  0  0  0  0
   -7.7490   -3.3337  -22.7614 C   0  0  0  0  0  0  0  0  0  0  0  0
   -8.9683   -2.4605  -22.7370 C   0  0  0  0  0  0  0  0  0  0  0  0
  -10.1382   -2.7811  -23.6193 N   0  0  0  0  0  0  0  0  0  0  0  0
  -10.0889   -3.9750  -24.5260 C   0  0  0  0  0  0  0  0  0  0  0  0
  -11.2588   -4.2956  -25.4083 O   0  0  0  0  0  0  0  0  0  0  0  0
   -8.8695   -4.8483  -24.5504 C   0  0  0  0  0  0  0  0  0  0  0  0
   -8.8201   -6.0422  -25.4571 C   0  0  0  0  0  0  0  0  0  0  0  0
   -7.6008   -6.9155  -25.4815 C   0  0  0  0  0  0  0  0  0  0  0  0
   -6.4309   -6.5949  -24.5992 C   0  0  0  0  0  0  0  0  0  0  0  0
   -5.2115   -7.4682  -24.6237 F   0  0  0  0  0  0  0  0  0  0  0  0
   -6.4802   -5.4010  -23.6925 C   0  0  0  0  0  0  0  0  0  0  0  0
   -7.6995   -4.5277  -23.6681 C   0  0  0  0  0  0  0  0  0  0  0  0
   -5.7989   -1.2827  -20.1051 C   0  0  0  0  0  0  0  0  0  0  0  0
   -6.3122   -1.3451  -18.6972 C   0  0  0  0  0  0  0  0  0  0  0  0
   -5.7963   -0.3842  -17.6674 N   0  0  0  0  0  0  0  0  0  0  0  0
   -4.7670    0.6392  -18.0457 C   0  0  0  0  0  0  0  0  0  0  0  0
   -4.2535    0.7016  -19.4537 C   0  0  0  0  0  0  0  0  0  0  0  0
   -3.2241    1.7251  -19.8320 C   0  0  0  0  0  0  0  0  0  0  0  0
   -2.7108    1.7875  -21.2401 C   0  0  0  0  0  0  0  0  0  0  0  0
   -3.2268    0.8265  -22.2697 C   0  0  0  0  0  0  0  0  0  0  0  0
   -4.2561   -0.1968  -21.8914 C   0  0  0  0  0  0  0  0  0  0  0  0
   -4.7695   -0.2593  -20.4835 C   0  0  0  0  0  0  0  0  0  0  0  0
  -11.3576   -1.9077  -23.5948 C   0  0  0  0  0  0  0  0  0  0  0  0
  -11.2203   -0.4233  -23.7607 C   0  0  0  0  0  0  0  0  0  0  0  0
  -12.2995    0.4903  -23.2600 C   0  0  0  0  0  0  0  0  0  0  0  0
  -12.1623    1.9747  -23.4259 C   0  0  0  0  0  0  0  0  0  0  0  0
  -10.9458    2.5457  -24.0924 N   0  0  0  0  0  0  0  0  0  0  0  0
   -9.8665    1.6321  -24.5930 C   0  0  0  0  0  0  0  0  0  0  0  0
  -10.0038    0.1476  -24.4272 N   0  0  0  0  0  0  0  0  0  0  0  0
  2  1  1  0  0  0
  2  3  1  0  0  0
  3  4  1  0  0  0
  4 19  1  0  0  0
 19 20  2  0  0  0
 20 21  1  0  0  0
 21 22  2  0  0  0
 22 23  1  0  0  0
 23 24  2  0  0  0
 24 25  1  0  0  0
 25 26  2  0  0  0
 26 27  1  0  0  0
 27 28  2  0  0  0
  4  5  1  0  0  0
  5  6  2  0  0  0
  5  7  1  0  0  0
  7  8  1  0  0  0
  8  9  1  0  0  0
  9 29  1  0  0  0
 29 30  1  0  0  0
 30 31  2  0  0  0
 31 32  1  0  0  0
 32 33  2  0  0  0
 33 34  1  0  0  0
 34 35  2  0  0  0
  9 10  1  0  0  0
 10 11  2  0  0  0
 10 12  1  0  0  0
 12 13  2  0  0  0
 13 14  1  0  0  0
 14 15  2  0  0  0
 15 16  1  0  0  0
 15 17  1  0  0  0
 17 18  2  0  0  0
  7  2  1  0  0  0
 35 30  1  0  0  0
 18 12  1  0  0  0
 28 19  1  0  0  0
 18  7  1  0  0  0
 28 23  1  0  0  0
M  END
> <minimizedAffinity>
-9.16097

> <CNNscore>
0.3148239255

> <CNNaffinity>
6.2001857758

> <CNN_VS>
1.9519668818

> <CNNaffinity_variance>
0.1763053536

$$$$



 35 40  0  0  0  0  0  0  0  0999 V2000
   -6.8916   -2.9904  -22.5285 C   0  0  0  0  0  0  0  0  0  0  0  0
   -6.6003   -1.5229  -22.4201 C   0  0  0  0  0  0  0  0  0  0  0  0
   -5.2502   -1.2609  -21.8212 C   0  0  0  0  0  0  0  0  0  0  0  0
   -5.0529    0.2246  -21.7551 N   0  0  0  0  0  0  0  0  0  0  0  0
   -6.2810    0.8806  -22.3132 C   0  0  0  0  0  0  0  0  0  0  0  0
   -6.5121    2.3574  -22.4383 O   0  0  0  0  0  0  0  0  0  0  0  0
   -7.2373   -0.1994  -22.7242 C   0  0  0  0  0  0  0  0  0  0  0  0
   -7.7441    1.1906  -22.9711 C   0  0  0  0  0  0  0  0  0  0  0  0
   -9.0995    1.3977  -23.5794 N   0  0  0  0  0  0  0  0  0  0  0  0
   -9.9481    0.2148  -23.9408 C   0  0  0  0  0  0  0  0  0  0  0  0
  -11.3035    0.4219  -24.5490 O   0  0  0  0  0  0  0  0  0  0  0  0
   -9.4413   -1.1753  -23.6939 C   0  0  0  0  0  0  0  0  0  0  0  0
  -10.2899   -2.3581  -24.0552 C   0  0  0  0  0  0  0  0  0  0  0  0
   -9.7831   -3.7481  -23.8083 C   0  0  0  0  0  0  0  0  0  0  0  0
   -8.4277   -3.9552  -23.2000 C   0  0  0  0  0  0  0  0  0  0  0  0
   -7.9209   -5.3453  -22.9531 F   0  0  0  0  0  0  0  0  0  0  0  0
   -7.5791   -2.7724  -22.8387 C   0  0  0  0  0  0  0  0  0  0  0  0
   -8.0859   -1.3824  -23.0856 C   0  0  0  0  0  0  0  0  0  0  0  0
   -3.8404    0.9303  -21.2241 C   0  0  0  0  0  0  0  0  0  0  0  0
   -3.8342    1.4573  -19.8198 C   0  0  0  0  0  0  0  0  0  0  0  0
   -2.6217    2.1629  -19.2889 N   0  0  0  0  0  0  0  0  0  0  0  0
   -1.4154    2.3415  -20.1623 C   0  0  0  0  0  0  0  0  0  0  0  0
   -1.4215    1.8144  -21.5667 C   0  0  0  0  0  0  0  0  0  0  0  0
   -0.2151    1.9930  -22.4401 C   0  0  0  0  0  0  0  0  0  0  0  0
   -0.2214    1.4659  -23.8444 C   0  0  0  0  0  0  0  0  0  0  0  0
   -1.4339    0.7603  -24.3753 C   0  0  0  0  0  0  0  0  0  0  0  0
   -2.6402    0.5817  -23.5019 C   0  0  0  0  0  0  0  0  0  0  0  0
   -2.6341    1.1088  -22.0976 C   0  0  0  0  0  0  0  0  0  0  0  0
   -9.6063    2.7878  -23.8263 C   0  0  0  0  0  0  0  0  0  0  0  0
  -11.0690    3.0889  -23.6853 C   0  0  0  0  0  0  0  0  0  0  0  0
  -11.7970    3.8037  -24.7849 C   0  0  0  0  0  0  0  0  0  0  0  0
  -13.2596    4.1048  -24.6439 C   0  0  0  0  0  0  0  0  0  0  0  0
  -13.9943    3.6912  -23.4032 N   0  0  0  0  0  0  0  0  0  0  0  0
  -13.2663    2.9764  -22.3036 C   0  0  0  0  0  0  0  0  0  0  0  0
  -11.8036    2.6753  -22.4447 N   0  0  0  0  0  0  0  0  0  0  0  0
  2  1  1  0  0  0
  2  3  1  0  0  0
  3  4  1  0  0  0
  4 19  1  0  0  0
 19 20  2  0  0  0
 20 21  1  0  0  0
 21 22  2  0  0  0
 22 23  1  0  0  0
 23 24  2  0  0  0
 24 25  1  0  0  0
 25 26  2  0  0  0
 26 27  1  0  0  0
 27 28  2  0  0  0
  4  5  1  0  0  0
  5  6  2  0  0  0
  5  7  1  0  0  0
  7  8  1  0  0  0
  8  9  1  0  0  0
  9 29  1  0  0  0
 29 30  1  0  0  0
 30 31  2  0  0  0
 31 32  1  0  0  0
 32 33  2  0  0  0
 33 34  1  0  0  0
 34 35  2  0  0  0
  9 10  1  0  0  0
 10 11  2  0  0  0
 10 12  1  0  0  0
 12 13  2  0  0  0
 13 14  1  0  0  0
 14 15  2  0  0  0
 15 16  1  0  0  0
 15 17  1  0  0  0
 17 18  2  0  0  0
  7  2  1  0  0  0
 35 30  1  0  0  0
 18 12  1  0  0  0
 28 19  1  0  0  0
 18  7  1  0  0  0
 28 23  1  0  0  0
M  END
> <minimizedAffinity>
-7.78867

> <CNNscore>
0.2297285199

> <CNNaffinity>
6.2176041603

> <CNN_VS>
1.4283610582

> <CNNaffinity_variance>
0.1623668522

$$$$



 35 40  0  0  0  0  0  0  0  0999 V2000
   -9.6962   -1.2634  -22.9926 C   0  0  0  0  0  0  0  0  0  0  0  0
   -9.1565    0.1220  -23.1918 C   0  0  0  0  0  0  0  0  0  0  0  0
   -7.6569    0.1494  -23.1700 C   0  0  0  0  0  0  0  0  0  0  0  0
   -7.2162    1.5683  -23.3760 N   0  0  0  0  0  0  0  0  0  0  0  0
   -8.4435    2.4178  -23.5251 C   0  0  0  0  0  0  0  0  0  0  0  0
   -8.4673    3.9009  -23.7487 O   0  0  0  0  0  0  0  0  0  0  0  0
   -9.6427    1.5240  -23.4113 C   0  0  0  0  0  0  0  0  0  0  0  0
   -9.9778    2.9689  -23.6346 C   0  0  0  0  0  0  0  0  0  0  0  0
  -11.4113    3.4011  -23.7244 N   0  0  0  0  0  0  0  0  0  0  0  0
  -12.5098    2.3884  -23.5910 C   0  0  0  0  0  0  0  0  0  0  0  0
  -13.9434    2.8206  -23.6809 O   0  0  0  0  0  0  0  0  0  0  0  0
  -12.1747    0.9434  -23.3677 C   0  0  0  0  0  0  0  0  0  0  0  0
  -13.2731   -0.0693  -23.2343 C   0  0  0  0  0  0  0  0  0  0  0  0
  -12.9380   -1.5142  -23.0110 C   0  0  0  0  0  0  0  0  0  0  0  0
  -11.5044   -1.9464  -22.9211 C   0  0  0  0  0  0  0  0  0  0  0  0
  -11.1693   -3.3914  -22.6978 F   0  0  0  0  0  0  0  0  0  0  0  0
  -10.4060   -0.9337  -23.0546 C   0  0  0  0  0  0  0  0  0  0  0  0
  -10.7411    0.5112  -23.2779 C   0  0  0  0  0  0  0  0  0  0  0  0
   -5.7974    2.0527  -23.4243 C   0  0  0  0  0  0  0  0  0  0  0  0
   -5.2725    2.7137  -24.6642 C   0  0  0  0  0  0  0  0  0  0  0  0
   -3.8537    3.1981  -24.7125 N   0  0  0  0  0  0  0  0  0  0  0  0
   -2.9599    3.0214  -23.5209 C   0  0  0  0  0  0  0  0  0  0  0  0
   -3.4849    2.3604  -22.2810 C   0  0  0  0  0  0  0  0  0  0  0  0
   -2.5910    2.1837  -21.0894 C   0  0  0  0  0  0  0  0  0  0  0  0
   -3.1161    1.5227  -19.8495 C   0  0  0  0  0  0  0  0  0  0  0  0
   -4.5349    1.0383  -19.8012 C   0  0  0  0  0  0  0  0  0  0  0  0
   -5.4286    1.2150  -20.9928 C   0  0  0  0  0  0  0  0  0  0  0  0
   -4.9037    1.8760  -22.2327 C   0  0  0  0  0  0  0  0  0  0  0  0
  -11.7464    4.8461  -23.9478 C   0  0  0  0  0  0  0  0  0  0  0  0
  -12.0053    5.3500  -25.3366 C   0  0  0  0  0  0  0  0  0  0  0  0
  -13.3816    5.8017  -25.7262 C   0  0  0  0  0  0  0  0  0  0  0  0
  -13.6404    6.3056  -27.1151 C   0  0  0  0  0  0  0  0  0  0  0  0
  -12.5230    6.3578  -28.1145 N   0  0  0  0  0  0  0  0  0  0  0  0
  -11.1467    5.9061  -27.7249 C   0  0  0  0  0  0  0  0  0  0  0  0
  -10.8879    5.4022  -26.3359 N   0  0  0  0  0  0  0  0  0  0  0  0
  2  1  1  0  0  0
  2  3  1  0  0  0
  3  4  1  0  0  0
  4 19  1  0  0  0
 19 20  2  0  0  0
 20 21  1  0  0  0
 21 22  2  0  0  0
 22 23  1  0  0  0
 23 24  2  0  0  0
 24 25  1  0  0  0
 25 26  2  0  0  0
 26 27  1  0  0  0
 27 28  2  0  0  0
  4  5  1  0  0  0
  5  6  2  0  0  0
  5  7  1  0  0  0
  7  8  1  0  0  0
  8  9  1  0  0  0
  9 29  1  0  0  0
 29 30  1  0  0  0
 30 31  2  0  0  0
 31 32  1  0  0  0
 32 33  2  0  0  0
 33 34  1  0  0  0
 34 35  2  0  0  0
  9 10  1  0  0  0
 10 11  2  0  0  0
 10 12  1  0  0  0
 12 13  2  0  0  0
 13 14  1  0  0  0
 14 15  2  0  0  0
 15 16  1  0  0  0
 15 17  1  0  0  0
 17 18  2  0  0  0
  7  2  1  0  0  0
 35 30  1  0  0  0
 18 12  1  0  0  0
 28 19  1  0  0  0
 18  7  1  0  0  0
 28 23  1  0  0  0
M  END
> <minimizedAffinity>
-7.77237

> <CNNscore>
0.2265001386

> <CNNaffinity>
6.1779694557

> <CNN_VS>
1.3993109465

> <CNNaffinity_variance>
0.0934039131

$$$$



 35 40  0  0  0  0  0  0  0  0999 V2000
  -11.0089   -3.4546  -24.9400 C   0  0  0  0  0  0  0  0  0  0  0  0
  -10.5177   -2.1772  -24.3260 C   0  0  0  0  0  0  0  0  0  0  0  0
  -11.5692   -1.1075  -24.3375 C   0  0  0  0  0  0  0  0  0  0  0  0
  -10.9863    0.1223  -23.7068 N   0  0  0  0  0  0  0  0  0  0  0  0
   -9.5745   -0.1873  -23.3056 C   0  0  0  0  0  0  0  0  0  0  0  0
   -8.6199    0.7582  -22.6387 O   0  0  0  0  0  0  0  0  0  0  0  0
   -9.2849   -1.6085  -23.6883 C   0  0  0  0  0  0  0  0  0  0  0  0
   -8.1325   -0.9060  -23.0336 C   0  0  0  0  0  0  0  0  0  0  0  0
   -6.8375   -1.6312  -22.8167 N   0  0  0  0  0  0  0  0  0  0  0  0
   -6.6948   -3.0587  -23.2544 C   0  0  0  0  0  0  0  0  0  0  0  0
   -5.3998   -3.7839  -23.0374 O   0  0  0  0  0  0  0  0  0  0  0  0
   -7.8472   -3.7613  -23.9090 C   0  0  0  0  0  0  0  0  0  0  0  0
   -7.7045   -5.1888  -24.3467 C   0  0  0  0  0  0  0  0  0  0  0  0
   -8.8569   -5.8913  -25.0014 C   0  0  0  0  0  0  0  0  0  0  0  0
  -10.1519   -5.1662  -25.2183 C   0  0  0  0  0  0  0  0  0  0  0  0
  -11.3043   -5.8687  -25.8730 F   0  0  0  0  0  0  0  0  0  0  0  0
  -10.2946   -3.7386  -24.7806 C   0  0  0  0  0  0  0  0  0  0  0  0
   -9.1422   -3.0361  -24.1260 C   0  0  0  0  0  0  0  0  0  0  0  0
  -11.6913    1.4318  -23.5116 C   0  0  0  0  0  0  0  0  0  0  0  0
  -12.9406    1.4949  -22.6839 C   0  0  0  0  0  0  0  0  0  0  0  0
  -13.6456    2.8044  -22.4887 N   0  0  0  0  0  0  0  0  0  0  0  0
  -13.1013    4.0508  -23.1213 C   0  0  0  0  0  0  0  0  0  0  0  0
  -11.8519    3.9877  -23.9490 C   0  0  0  0  0  0  0  0  0  0  0  0
  -11.3076    5.2342  -24.5816 C   0  0  0  0  0  0  0  0  0  0  0  0
  -10.0583    5.1710  -25.4094 C   0  0  0  0  0  0  0  0  0  0  0  0
   -9.3533    3.8615  -25.6045 C   0  0  0  0  0  0  0  0  0  0  0  0
   -9.8976    2.6151  -24.9719 C   0  0  0  0  0  0  0  0  0  0  0  0
  -11.1469    2.6782  -24.1442 C   0  0  0  0  0  0  0  0  0  0  0  0
   -5.6851   -0.9286  -22.1620 C   0  0  0  0  0  0  0  0  0  0  0  0
   -5.7194   -0.6427  -20.6899 C   0  0  0  0  0  0  0  0  0  0  0  0
   -6.8615   -1.1418  -19.8554 C   0  0  0  0  0  0  0  0  0  0  0  0
   -6.8959   -0.8559  -18.3833 C   0  0  0  0  0  0  0  0  0  0  0  0
   -5.7881   -0.0707  -17.7458 N   0  0  0  0  0  0  0  0  0  0  0  0
   -4.6460    0.4285  -18.5803 C   0  0  0  0  0  0  0  0  0  0  0  0
   -4.6117    0.1425  -20.0524 N   0  0  0  0  0  0  0  0  0  0  0  0
  2  1  1  0  0  0
  2  3  1  0  0  0
  3  4  1  0  0  0
  4 19  1  0  0  0
 19 20  2  0  0  0
 20 21  1  0  0  0
 21 22  2  0  0  0
 22 23  1  0  0  0
 23 24  2  0  0  0
 24 25  1  0  0  0
 25 26  2  0  0  0
 26 27  1  0  0  0
 27 28  2  0  0  0
  4  5  1  0  0  0
  5  6  2  0  0  0
  5  7  1  0  0  0
  7  8  1  0  0  0
  8  9  1  0  0  0
  9 29  1  0  0  0
 29 30  1  0  0  0
 30 31  2  0  0  0
 31 32  1  0  0  0
 32 33  2  0  0  0
 33 34  1  0  0  0
 34 35  2  0  0  0
  9 10  1  0  0  0
 10 11  2  0  0  0
 10 12  1  0  0  0
 12 13  2  0  0  0
 13 14  1  0  0  0
 14 15  2  0  0  0
 15 16  1  0  0  0
 15 17  1  0  0  0
 17 18  2  0  0  0
  7  2  1  0  0  0
 35 30  1  0  0  0
 18 12  1  0  0  0
 28 19  1  0  0  0
 18  7  1  0  0  0
 28 23  1  0  0  0
M  END
> <minimizedAffinity>
-7.45683

> <CNNscore>
0.2247224301

> <CNNaffinity>
6.2684464455

> <CNN_VS>
1.4086605310

> <CNNaffinity_variance>
0.0749969333

$$$$



 35 40  0  0  0  0  0  0  0  0999 V2000
  -11.7204   -2.0614  -23.0641 C   0  0  0  0  0  0  0  0  0  0  0  0
  -10.2376   -2.0000  -23.2830 C   0  0  0  0  0  0  0  0  0  0  0  0
   -9.5827   -3.3327  -23.0710 C   0  0  0  0  0  0  0  0  0  0  0  0
   -8.1111   -3.1694  -23.3115 N   0  0  0  0  0  0  0  0  0  0  0  0
   -7.8566   -1.7358  -23.6721 C   0  0  0  0  0  0  0  0  0  0  0  0
   -6.5221   -1.1311  -23.9938 O   0  0  0  0  0  0  0  0  0  0  0  0
   -9.1709   -1.0130  -23.6545 C   0  0  0  0  0  0  0  0  0  0  0  0
   -8.0018   -0.1445  -24.0133 C   0  0  0  0  0  0  0  0  0  0  0  0
   -8.2124    1.3099  -24.3143 N   0  0  0  0  0  0  0  0  0  0  0  0
   -9.5920    1.8956  -24.2566 C   0  0  0  0  0  0  0  0  0  0  0  0
   -9.8026    3.3499  -24.5577 O   0  0  0  0  0  0  0  0  0  0  0  0
  -10.7612    1.0270  -23.8978 C   0  0  0  0  0  0  0  0  0  0  0  0
  -12.1409    1.6128  -23.8401 C   0  0  0  0  0  0  0  0  0  0  0  0
  -13.3100    0.7442  -23.4814 C   0  0  0  0  0  0  0  0  0  0  0  0
  -13.0994   -0.7101  -23.1803 C   0  0  0  0  0  0  0  0  0  0  0  0
  -14.2686   -1.5787  -22.8216 F   0  0  0  0  0  0  0  0  0  0  0  0
  -11.7198   -1.2958  -23.2380 C   0  0  0  0  0  0  0  0  0  0  0  0
  -10.5507   -0.4273  -23.5968 C   0  0  0  0  0  0  0  0  0  0  0  0
   -7.0758   -4.2499  -23.2093 C   0  0  0  0  0  0  0  0  0  0  0  0
   -6.3096   -4.4363  -21.9333 C   0  0  0  0  0  0  0  0  0  0  0  0
   -5.2743   -5.5168  -21.8311 N   0  0  0  0  0  0  0  0  0  0  0  0
   -5.0051   -6.4110  -23.0049 C   0  0  0  0  0  0  0  0  0  0  0  0
   -5.7713   -6.2247  -24.2810 C   0  0  0  0  0  0  0  0  0  0  0  0
   -5.5022   -7.1190  -25.4548 C   0  0  0  0  0  0  0  0  0  0  0  0
   -6.2684   -6.9326  -26.7308 C   0  0  0  0  0  0  0  0  0  0  0  0
   -7.3037   -5.8521  -26.8329 C   0  0  0  0  0  0  0  0  0  0  0  0
   -7.5728   -4.9578  -25.6591 C   0  0  0  0  0  0  0  0  0  0  0  0
   -6.8067   -5.1442  -24.3832 C   0  0  0  0  0  0  0  0  0  0  0  0
   -7.0432    2.1784  -24.6731 C   0  0  0  0  0  0  0  0  0  0  0  0
   -6.9017    3.5382  -24.0559 C   0  0  0  0  0  0  0  0  0  0  0  0
   -6.9482    3.6936  -22.5647 C   0  0  0  0  0  0  0  0  0  0  0  0
   -6.8067    5.0533  -21.9476 C   0  0  0  0  0  0  0  0  0  0  0  0
   -6.6188    6.2579  -22.8216 N   0  0  0  0  0  0  0  0  0  0  0  0
   -6.5723    6.1025  -24.3128 C   0  0  0  0  0  0  0  0  0  0  0  0
   -6.7138    4.7426  -24.9300 N   0  0  0  0  0  0  0  0  0  0  0  0
  2  1  1  0  0  0
  2  3  1  0  0  0
  3  4  1  0  0  0
  4 19  1  0  0  0
 19 20  2  0  0  0
 20 21  1  0  0  0
 21 22  2  0  0  0
 22 23  1  0  0  0
 23 24  2  0  0  0
 24 25  1  0  0  0
 25 26  2  0  0  0
 26 27  1  0  0  0
 27 28  2  0  0  0
  4  5  1  0  0  0
  5  6  2  0  0  0
  5  7  1  0  0  0
  7  8  1  0  0  0
  8  9  1  0  0  0
  9 29  1  0  0  0
 29 30  1  0  0  0
 30 31  2  0  0  0
 31 32  1  0  0  0
 32 33  2  0  0  0
 33 34  1  0  0  0
 34 35  2  0  0  0
  9 10  1  0  0  0
 10 11  2  0  0  0
 10 12  1  0  0  0
 12 13  2  0  0  0
 13 14  1  0  0  0
 14 15  2  0  0  0
 15 16  1  0  0  0
 15 17  1  0  0  0
 17 18  2  0  0  0
  7  2  1  0  0  0
 35 30  1  0  0  0
 18 12  1  0  0  0
 28 19  1  0  0  0
 18  7  1  0  0  0
 28 23  1  0  0  0
M  END
> <minimizedAffinity>
-7.94672

> <CNNscore>
0.2201067954

> <CNNaffinity>
6.2545690536

> <CNN_VS>
1.3766731024

> <CNNaffinity_variance>
0.2694918513

$$$$



 35 40  0  0  0  0  0  0  0  0999 V2000
   -5.7763    2.9816  -22.0904 C   0  0  0  0  0  0  0  0  0  0  0  0
   -7.0087    2.7072  -22.9004 C   0  0  0  0  0  0  0  0  0  0  0  0
   -7.5216    3.9426  -23.5793 C   0  0  0  0  0  0  0  0  0  0  0  0
   -8.7471    3.5681  -24.3589 N   0  0  0  0  0  0  0  0  0  0  0  0
   -8.9916    2.1014  -24.1619 C   0  0  0  0  0  0  0  0  0  0  0  0
  -10.1136    1.3063  -24.7611 O   0  0  0  0  0  0  0  0  0  0  0  0
   -7.9173    1.5693  -23.2605 C   0  0  0  0  0  0  0  0  0  0  0  0
   -8.9081    0.5347  -23.7054 C   0  0  0  0  0  0  0  0  0  0  0  0
   -8.7670   -0.8859  -23.2449 N   0  0  0  0  0  0  0  0  0  0  0  0
   -7.6352   -1.2719  -22.3395 C   0  0  0  0  0  0  0  0  0  0  0  0
   -7.4942   -2.6925  -21.8790 O   0  0  0  0  0  0  0  0  0  0  0  0
   -6.6443   -0.2373  -21.8945 C   0  0  0  0  0  0  0  0  0  0  0  0
   -5.5125   -0.6234  -20.9890 C   0  0  0  0  0  0  0  0  0  0  0  0
   -4.5217    0.4111  -20.5440 C   0  0  0  0  0  0  0  0  0  0  0  0
   -4.6628    1.8317  -21.0045 C   0  0  0  0  0  0  0  0  0  0  0  0
   -3.6719    2.8663  -20.5595 F   0  0  0  0  0  0  0  0  0  0  0  0
   -5.7946    2.2178  -21.9100 C   0  0  0  0  0  0  0  0  0  0  0  0
   -6.7854    1.1832  -22.3550 C   0  0  0  0  0  0  0  0  0  0  0  0
   -9.5815    4.4973  -25.1898 C   0  0  0  0  0  0  0  0  0  0  0  0
   -9.0828    4.9609  -26.5262 C   0  0  0  0  0  0  0  0  0  0  0  0
   -9.9173    5.8901  -27.3571 N   0  0  0  0  0  0  0  0  0  0  0  0
  -11.2505    6.3556  -26.8514 C   0  0  0  0  0  0  0  0  0  0  0  0
  -11.7492    5.8920  -25.5148 C   0  0  0  0  0  0  0  0  0  0  0  0
  -13.0825    6.3576  -25.0091 C   0  0  0  0  0  0  0  0  0  0  0  0
  -13.5812    5.8940  -23.6725 C   0  0  0  0  0  0  0  0  0  0  0  0
  -12.7467    4.9649  -22.8418 C   0  0  0  0  0  0  0  0  0  0  0  0
  -11.4135    4.4993  -23.3475 C   0  0  0  0  0  0  0  0  0  0  0  0
  -10.9148    4.9628  -24.6840 C   0  0  0  0  0  0  0  0  0  0  0  0
   -9.7579   -1.9204  -23.6899 C   0  0  0  0  0  0  0  0  0  0  0  0
  -11.2224   -1.7123  -23.4411 C   0  0  0  0  0  0  0  0  0  0  0  0
  -11.9759   -2.6634  -22.5593 C   0  0  0  0  0  0  0  0  0  0  0  0
  -13.4404   -2.4553  -22.3104 C   0  0  0  0  0  0  0  0  0  0  0  0
  -14.1514   -1.2960  -22.9434 N   0  0  0  0  0  0  0  0  0  0  0  0
  -13.3979   -0.3449  -23.8252 C   0  0  0  0  0  0  0  0  0  0  0  0
  -11.9333   -0.5531  -24.0741 N   0  0  0  0  0  0  0  0  0  0  0  0
  2  1  1  0  0  0
  2  3  1  0  0  0
  3  4  1  0  0  0
  4 19  1  0  0  0
 19 20  2  0  0  0
 20 21  1  0  0  0
 21 22  2  0  0  0
 22 23  1  0  0  0
 23 24  2  0  0  0
 24 25  1  0  0  0
 25 26  2  0  0  0
 26 27  1  0  0  0
 27 28  2  0  0  0
  4  5  1  0  0  0
  5  6  2  0  0  0
  5  7  1  0  0  0
  7  8  1  0  0  0
  8  9  1  0  0  0
  9 29  1  0  0  0
 29 30  1  0  0  0
 30 31  2  0  0  0
 31 32  1  0  0  0
 32 33  2  0  0  0
 33 34  1  0  0  0
 34 35  2  0  0  0
  9 10  1  0  0  0
 10 11  2  0  0  0
 10 12  1  0  0  0
 12 13  2  0  0  0
 13 14  1  0  0  0
 14 15  2  0  0  0
 15 16  1  0  0  0
 15 17  1  0  0  0
 17 18  2  0  0  0
  7  2  1  0  0  0
 35 30  1  0  0  0
 18 12  1  0  0  0
 28 19  1  0  0  0
 18  7  1  0  0  0
 28 23  1  0  0  0
M  END
> <minimizedAffinity>
-8.87735

> <CNNscore>
0.1984535754

> <CNNaffinity>
5.9577264786

> <CNN_VS>
1.1823321581

> <CNNaffinity_variance>
0.2924504280

$$$$



 35 40  0  0  0  0  0  0  0  0999 V2000
   -9.5062   -3.8923  -24.5702 C   0  0  0  0  0  0  0  0  0  0  0  0
   -9.4652   -2.5932  -23.8213 C   0  0  0  0  0  0  0  0  0  0  0  0
  -10.5577   -1.6607  -24.2538 C   0  0  0  0  0  0  0  0  0  0  0  0
  -10.4335   -0.3983  -23.4532 N   0  0  0  0  0  0  0  0  0  0  0  0
   -9.2643   -0.5507  -22.5260 C   0  0  0  0  0  0  0  0  0  0  0  0
   -8.7787    0.4737  -21.5436 O   0  0  0  0  0  0  0  0  0  0  0  0
   -8.6658   -1.9072  -22.7535 C   0  0  0  0  0  0  0  0  0  0  0  0
   -7.9638   -1.0991  -21.7028 C   0  0  0  0  0  0  0  0  0  0  0  0
   -6.7747   -1.6694  -20.9880 N   0  0  0  0  0  0  0  0  0  0  0  0
   -6.2878   -3.0478  -21.3239 C   0  0  0  0  0  0  0  0  0  0  0  0
   -5.0987   -3.6181  -20.6091 O   0  0  0  0  0  0  0  0  0  0  0  0
   -6.9898   -3.8559  -22.3747 C   0  0  0  0  0  0  0  0  0  0  0  0
   -6.5029   -5.2343  -22.7106 C   0  0  0  0  0  0  0  0  0  0  0  0
   -7.2050   -6.0424  -23.7613 C   0  0  0  0  0  0  0  0  0  0  0  0
   -8.3940   -5.4721  -24.4761 C   0  0  0  0  0  0  0  0  0  0  0  0
   -9.0961   -6.2802  -25.5269 F   0  0  0  0  0  0  0  0  0  0  0  0
   -8.8810   -4.0937  -24.1402 C   0  0  0  0  0  0  0  0  0  0  0  0
   -8.1789   -3.2856  -23.0895 C   0  0  0  0  0  0  0  0  0  0  0  0
  -11.3224    0.8051  -23.5608 C   0  0  0  0  0  0  0  0  0  0  0  0
  -12.7446    0.7315  -23.0900 C   0  0  0  0  0  0  0  0  0  0  0  0
  -13.6336    1.9349  -23.1977 N   0  0  0  0  0  0  0  0  0  0  0  0
  -13.1002    3.2119  -23.7762 C   0  0  0  0  0  0  0  0  0  0  0  0
  -11.6779    3.2855  -24.2471 C   0  0  0  0  0  0  0  0  0  0  0  0
  -11.1445    4.5626  -24.8256 C   0  0  0  0  0  0  0  0  0  0  0  0
   -9.7222    4.6361  -25.2964 C   0  0  0  0  0  0  0  0  0  0  0  0
   -8.8334    3.4327  -25.1887 C   0  0  0  0  0  0  0  0  0  0  0  0
   -9.3668    2.1557  -24.6102 C   0  0  0  0  0  0  0  0  0  0  0  0
  -10.7890    2.0821  -24.1394 C   0  0  0  0  0  0  0  0  0  0  0  0
   -6.0726   -0.8612  -19.9372 C   0  0  0  0  0  0  0  0  0  0  0  0
   -4.8857   -0.0214  -20.3055 C   0  0  0  0  0  0  0  0  0  0  0  0
   -4.2329    0.8486  -19.2726 C   0  0  0  0  0  0  0  0  0  0  0  0
   -3.0460    1.6885  -19.6409 C   0  0  0  0  0  0  0  0  0  0  0  0
   -2.5117    1.6584  -21.0423 N   0  0  0  0  0  0  0  0  0  0  0  0
   -3.1645    0.7884  -22.0752 C   0  0  0  0  0  0  0  0  0  0  0  0
   -4.3515   -0.0515  -21.7068 N   0  0  0  0  0  0  0  0  0  0  0  0
  2  1  1  0  0  0
  2  3  1  0  0  0
  3  4  1  0  0  0
  4 19  1  0  0  0
 19 20  2  0  0  0
 20 21  1  0  0  0
 21 22  2  0  0  0
 22 23  1  0  0  0
 23 24  2  0  0  0
 24 25  1  0  0  0
 25 26  2  0  0  0
 26 27  1  0  0  0
 27 28  2  0  0  0
  4  5  1  0  0  0
  5  6  2  0  0  0
  5  7  1  0  0  0
  7  8  1  0  0  0
  8  9  1  0  0  0
  9 29  1  0  0  0
 29 30  1  0  0  0
 30 31  2  0  0  0
 31 32  1  0  0  0
 32 33  2  0  0  0
 33 34  1  0  0  0
 34 35  2  0  0  0
  9 10  1  0  0  0
 10 11  2  0  0  0
 10 12  1  0  0  0
 12 13  2  0  0  0
 13 14  1  0  0  0
 14 15  2  0  0  0
 15 16  1  0  0  0
 15 17  1  0  0  0
 17 18  2  0  0  0
  7  2  1  0  0  0
 35 30  1  0  0  0
 18 12  1  0  0  0
 28 19  1  0  0  0
 18  7  1  0  0  0
 28 23  1  0  0  0
M  END
> <minimizedAffinity>
-9.26323

> <CNNscore>
0.1927250028

> <CNNaffinity>
6.2284555435

> <CNN_VS>
1.2003791332

> <CNNaffinity_variance>
0.0988197252

$$$$
