


 23 25  0  0  0  0  0  0  0  0999 V2000
    8.8137    0.8388   21.6445 O   0  0  0  0  0  0  0  0  0  0  0  0
    8.3479   -0.5871   21.6406 C   0  0  0  0  0  0  0  0  0  0  0  0
    9.3193   -1.6942   21.9244 N   0  0  0  0  0  0  0  0  0  0  0  0
    9.0136   -2.6300   21.9218 H   0  0  0  0  0  0  0  0  0  0  0  0
    6.9107   -0.9057   21.3529 C   0  0  0  0  0  0  0  0  0  0  0  0
    6.2028   -0.2217   20.2211 C   0  0  0  0  0  0  0  0  0  0  0  0
    6.7365   -0.3365   18.8240 C   0  0  0  0  0  0  0  0  0  0  0  0
    6.0286    0.3476   17.6922 N   0  0  0  0  0  0  0  0  0  0  0  0
    4.7870    1.1463   17.9575 C   0  0  0  0  0  0  0  0  0  0  0  0
    4.2533    1.2611   19.3546 C   0  0  0  0  0  0  0  0  0  0  0  0
    3.0117    2.0599   19.6199 C   0  0  0  0  0  0  0  0  0  0  0  0
    2.4780    2.1746   21.0170 C   0  0  0  0  0  0  0  0  0  0  0  0
    3.1859    1.4906   22.1489 C   0  0  0  0  0  0  0  0  0  0  0  0
    4.4275    0.6918   21.8836 C   0  0  0  0  0  0  0  0  0  0  0  0
    4.9612    0.5771   20.4865 C   0  0  0  0  0  0  0  0  0  0  0  0
   10.7566   -1.3755   22.2121 C   0  0  0  0  0  0  0  0  0  0  0  0
   11.3654   -1.7748   23.5235 C   0  0  0  0  0  0  0  0  0  0  0  0
   12.7512   -1.3215   23.8761 C   0  0  0  0  0  0  0  0  0  0  0  0
   13.3600   -1.7208   25.1875 C   0  0  0  0  0  0  0  0  0  0  0  0
   12.5829   -2.5734   26.1465 C   0  0  0  0  0  0  0  0  0  0  0  0
   11.1972   -3.0266   25.7939 C   0  0  0  0  0  0  0  0  0  0  0  0
   10.4203   -3.8791   26.7528 Cl  0  0  0  0  0  0  0  0  0  0  0  0
   10.5885   -2.6273   24.4824 C   0  0  0  0  0  0  0  0  0  0  0  0
  1  2  2  0  0  0
  2  5  1  0  0  0
  5  6  1  0  0  0
  6  7  2  0  0  0
  7  8  1  0  0  0
  8  9  2  0  0  0
  9 10  1  0  0  0
 10 11  2  0  0  0
 11 12  1  0  0  0
 12 13  2  0  0  0
 13 14  1  0  0  0
 14 15  2  0  0  0
  2  3  1  0  0  0
  3 16  1  0  0  0
 16 17  1  0  0  0
 17 18  2  0  0  0
 18 19  1  0  0  0
 19 20  2  0  0  0
 20 21  1  0  0  0
 21 22  1  0  0  0
 21 23  2  0  0  0
 15  6  1  0  0  0
 23 17  1  0  0  0
 15 10  1  0  0  0
  3  4  1  0  0  0
M  END
> <minimizedAffinity>
-7.64171

> <CNNscore>
0.9040226936

> <CNNaffinity>
5.7022566795

> <CNN_VS>
5.1549692154

> <CNNaffinity_variance>
0.0571564250

$$$$



 23 25  0  0  0  0  0  0  0  0999 V2000
    8.8023    0.8071   21.6986 O   0  0  0  0  0  0  0  0  0  0  0  0
    7.9467   -0.4137   21.8645 C   0  0  0  0  0  0  0  0  0  0  0  0
    8.5726   -1.7217   22.2484 N   0  0  0  0  0  0  0  0  0  0  0  0
    8.0111   -2.5230   22.3573 H   0  0  0  0  0  0  0  0  0  0  0  0
    6.4652   -0.3266   21.6464 C   0  0  0  0  0  0  0  0  0  0  0  0
    5.9277    0.1605   20.3334 C   0  0  0  0  0  0  0  0  0  0  0  0
    6.6582   -0.1529   19.0613 C   0  0  0  0  0  0  0  0  0  0  0  0
    6.1207    0.3342   17.7484 N   0  0  0  0  0  0  0  0  0  0  0  0
    4.8528    1.1346   17.7075 C   0  0  0  0  0  0  0  0  0  0  0  0
    4.1223    1.4480   18.9796 C   0  0  0  0  0  0  0  0  0  0  0  0
    2.8544    2.2484   18.9387 C   0  0  0  0  0  0  0  0  0  0  0  0
    2.1240    2.5618   20.2107 C   0  0  0  0  0  0  0  0  0  0  0  0
    2.6614    2.0747   21.5237 C   0  0  0  0  0  0  0  0  0  0  0  0
    3.9293    1.2743   21.5646 C   0  0  0  0  0  0  0  0  0  0  0  0
    4.6598    0.9609   20.2926 C   0  0  0  0  0  0  0  0  0  0  0  0
   10.0541   -1.8088   22.4665 C   0  0  0  0  0  0  0  0  0  0  0  0
   10.5915   -2.3403   23.7622 C   0  0  0  0  0  0  0  0  0  0  0  0
    9.7557   -3.2636   24.5983 C   0  0  0  0  0  0  0  0  0  0  0  0
   10.2931   -3.7951   25.8940 C   0  0  0  0  0  0  0  0  0  0  0  0
   11.6662   -3.4034   26.3535 C   0  0  0  0  0  0  0  0  0  0  0  0
   12.5020   -2.4802   25.5173 C   0  0  0  0  0  0  0  0  0  0  0  0
   13.8750   -2.0885   25.9768 Cl  0  0  0  0  0  0  0  0  0  0  0  0
   11.9646   -1.9487   24.2217 C   0  0  0  0  0  0  0  0  0  0  0  0
  1  2  2  0  0  0
  2  5  1  0  0  0
  5  6  1  0  0  0
  6  7  2  0  0  0
  7  8  1  0  0  0
  8  9  2  0  0  0
  9 10  1  0  0  0
 10 11  2  0  0  0
 11 12  1  0  0  0
 12 13  2  0  0  0
 13 14  1  0  0  0
 14 15  2  0  0  0
  2  3  1  0  0  0
  3 16  1  0  0  0
 16 17  1  0  0  0
 17 18  2  0  0  0
 18 19  1  0  0  0
 19 20  2  0  0  0
 20 21  1  0  0  0
 21 22  1  0  0  0
 21 23  2  0  0  0
 15  6  1  0  0  0
 23 17  1  0  0  0
 15 10  1  0  0  0
  3  4  1  0  0  0
M  END
> <minimizedAffinity>
-7.48704

> <CNNscore>
0.8733497262

> <CNNaffinity>
5.5607004166

> <CNN_VS>
4.8564362526

> <CNNaffinity_variance>
0.1118636504

$$$$



 23 25  0  0  0  0  0  0  0  0999 V2000
    6.8616   -1.7682   21.9192 O   0  0  0  0  0  0  0  0  0  0  0  0
    7.9017   -0.7058   21.7195 C   0  0  0  0  0  0  0  0  0  0  0  0
    9.3238   -0.9638   22.1206 N   0  0  0  0  0  0  0  0  0  0  0  0
   10.0065   -0.2667   21.9896 H   0  0  0  0  0  0  0  0  0  0  0  0
    7.5196    0.6144   21.1188 C   0  0  0  0  0  0  0  0  0  0  0  0
    6.5214    0.6687   20.0004 C   0  0  0  0  0  0  0  0  0  0  0  0
    6.7187   -0.1767   18.7772 C   0  0  0  0  0  0  0  0  0  0  0  0
    5.7205   -0.1223   17.6589 N   0  0  0  0  0  0  0  0  0  0  0  0
    4.5250    0.7774   17.7638 C   0  0  0  0  0  0  0  0  0  0  0  0
    4.3275    1.6229   18.9870 C   0  0  0  0  0  0  0  0  0  0  0  0
    3.1320    2.5227   19.0919 C   0  0  0  0  0  0  0  0  0  0  0  0
    2.9346    3.3681   20.3151 C   0  0  0  0  0  0  0  0  0  0  0  0
    3.9328    3.3137   21.4335 C   0  0  0  0  0  0  0  0  0  0  0  0
    5.1284    2.4140   21.3286 C   0  0  0  0  0  0  0  0  0  0  0  0
    5.3257    1.5686   20.1054 C   0  0  0  0  0  0  0  0  0  0  0  0
    9.7059   -2.2842   22.7214 C   0  0  0  0  0  0  0  0  0  0  0  0
   10.6584   -2.3338   23.8791 C   0  0  0  0  0  0  0  0  0  0  0  0
   11.8915   -1.4795   23.8729 C   0  0  0  0  0  0  0  0  0  0  0  0
   12.8440   -1.5292   25.0306 C   0  0  0  0  0  0  0  0  0  0  0  0
   12.5635   -2.4331   26.1944 C   0  0  0  0  0  0  0  0  0  0  0  0
   11.3306   -3.2873   26.2005 C   0  0  0  0  0  0  0  0  0  0  0  0
   11.0501   -4.1911   27.3643 Cl  0  0  0  0  0  0  0  0  0  0  0  0
   10.3780   -3.2376   25.0428 C   0  0  0  0  0  0  0  0  0  0  0  0
  1  2  2  0  0  0
  2  5  1  0  0  0
  5  6  1  0  0  0
  6  7  2  0  0  0
  7  8  1  0  0  0
  8  9  2  0  0  0
  9 10  1  0  0  0
 10 11  2  0  0  0
 11 12  1  0  0  0
 12 13  2  0  0  0
 13 14  1  0  0  0
 14 15  2  0  0  0
  2  3  1  0  0  0
  3 16  1  0  0  0
 16 17  1  0  0  0
 17 18  2  0  0  0
 18 19  1  0  0  0
 19 20  2  0  0  0
 20 21  1  0  0  0
 21 22  1  0  0  0
 21 23  2  0  0  0
 15  6  1  0  0  0
 23 17  1  0  0  0
 15 10  1  0  0  0
  3  4  1  0  0  0
M  END
> <minimizedAffinity>
-7.47817

> <CNNscore>
0.8201993704

> <CNNaffinity>
5.3707861900

> <CNN_VS>
4.4051156044

> <CNNaffinity_variance>
0.1230651140

$$$$



 23 25  0  0  0  0  0  0  0  0999 V2000
    6.3418   -1.1899   22.8350 O   0  0  0  0  0  0  0  0  0  0  0  0
    7.6377   -0.8835   22.1445 C   0  0  0  0  0  0  0  0  0  0  0  0
    8.8512   -1.7208   22.4212 N   0  0  0  0  0  0  0  0  0  0  0  0
    9.7017   -1.5198   21.9680 H   0  0  0  0  0  0  0  0  0  0  0  0
    7.7202    0.2600   21.1772 C   0  0  0  0  0  0  0  0  0  0  0  0
    6.7020    0.3922   20.0837 C   0  0  0  0  0  0  0  0  0  0  0  0
    6.8081   -0.4590   18.8532 C   0  0  0  0  0  0  0  0  0  0  0  0
    5.7899   -0.3267   17.7597 N   0  0  0  0  0  0  0  0  0  0  0  0
    4.6657    0.6568   17.8966 C   0  0  0  0  0  0  0  0  0  0  0  0
    4.5597    1.5082   19.1271 C   0  0  0  0  0  0  0  0  0  0  0  0
    3.4355    2.4917   19.2640 C   0  0  0  0  0  0  0  0  0  0  0  0
    3.3295    3.3430   20.4945 C   0  0  0  0  0  0  0  0  0  0  0  0
    4.3476    3.2107   21.5880 C   0  0  0  0  0  0  0  0  0  0  0  0
    5.4718    2.2271   21.4511 C   0  0  0  0  0  0  0  0  0  0  0  0
    5.5778    1.3759   20.2207 C   0  0  0  0  0  0  0  0  0  0  0  0
    8.7686   -2.8643   23.3885 C   0  0  0  0  0  0  0  0  0  0  0  0
    9.8506   -3.0638   24.4081 C   0  0  0  0  0  0  0  0  0  0  0  0
    9.6772   -4.0814   25.4964 C   0  0  0  0  0  0  0  0  0  0  0  0
   10.7592   -4.2809   26.5160 C   0  0  0  0  0  0  0  0  0  0  0  0
   12.0145   -3.4626   26.4473 C   0  0  0  0  0  0  0  0  0  0  0  0
   12.1879   -2.4450   25.3590 C   0  0  0  0  0  0  0  0  0  0  0  0
   13.4432   -1.6269   25.2903 Cl  0  0  0  0  0  0  0  0  0  0  0  0
   11.1059   -2.2456   24.3394 C   0  0  0  0  0  0  0  0  0  0  0  0
  1  2  2  0  0  0
  2  5  1  0  0  0
  5  6  1  0  0  0
  6  7  2  0  0  0
  7  8  1  0  0  0
  8  9  2  0  0  0
  9 10  1  0  0  0
 10 11  2  0  0  0
 11 12  1  0  0  0
 12 13  2  0  0  0
 13 14  1  0  0  0
 14 15  2  0  0  0
  2  3  1  0  0  0
  3 16  1  0  0  0
 16 17  1  0  0  0
 17 18  2  0  0  0
 18 19  1  0  0  0
 19 20  2  0  0  0
 20 21  1  0  0  0
 21 22  1  0  0  0
 21 23  2  0  0  0
 15  6  1  0  0  0
 23 17  1  0  0  0
 15 10  1  0  0  0
  3  4  1  0  0  0
M  END
> <minimizedAffinity>
-7.45474

> <CNNscore>
0.7907468081

> <CNNaffinity>
5.4523506165

> <CNN_VS>
4.3114290237

> <CNNaffinity_variance>
0.1181915179

$$$$



 23 25  0  0  0  0  0  0  0  0999 V2000
    8.2165    0.9322   21.6393 O   0  0  0  0  0  0  0  0  0  0  0  0
    7.4347   -0.1949   22.2463 C   0  0  0  0  0  0  0  0  0  0  0  0
    7.7849   -0.6988   23.6151 N   0  0  0  0  0  0  0  0  0  0  0  0
    7.2718   -1.4385   24.0135 H   0  0  0  0  0  0  0  0  0  0  0  0
    6.3028   -0.8182   21.4846 C   0  0  0  0  0  0  0  0  0  0  0  0
    5.7842   -0.1605   20.2402 C   0  0  0  0  0  0  0  0  0  0  0  0
    6.4594   -0.4081   18.9239 C   0  0  0  0  0  0  0  0  0  0  0  0
    5.9408    0.2496   17.6795 N   0  0  0  0  0  0  0  0  0  0  0  0
    4.7470    1.1548   17.7514 C   0  0  0  0  0  0  0  0  0  0  0  0
    4.0717    1.4024   19.0678 C   0  0  0  0  0  0  0  0  0  0  0  0
    2.8778    2.3076   19.1397 C   0  0  0  0  0  0  0  0  0  0  0  0
    2.2025    2.5552   20.4560 C   0  0  0  0  0  0  0  0  0  0  0  0
    2.7212    1.8975   21.7004 C   0  0  0  0  0  0  0  0  0  0  0  0
    3.9150    0.9923   21.6285 C   0  0  0  0  0  0  0  0  0  0  0  0
    4.5903    0.7447   20.3122 C   0  0  0  0  0  0  0  0  0  0  0  0
    8.9169   -0.0754   24.3768 C   0  0  0  0  0  0  0  0  0  0  0  0
   10.2923   -0.6684   24.2950 C   0  0  0  0  0  0  0  0  0  0  0  0
   10.9488   -1.2131   25.5289 C   0  0  0  0  0  0  0  0  0  0  0  0
   12.3242   -1.8060   25.4471 C   0  0  0  0  0  0  0  0  0  0  0  0
   13.0431   -1.8543   24.1314 C   0  0  0  0  0  0  0  0  0  0  0  0
   12.3866   -1.3096   22.8976 C   0  0  0  0  0  0  0  0  0  0  0  0
   13.1054   -1.3579   21.5820 Cl  0  0  0  0  0  0  0  0  0  0  0  0
   11.0112   -0.7166   22.9794 C   0  0  0  0  0  0  0  0  0  0  0  0
  1  2  2  0  0  0
  2  5  1  0  0  0
  5  6  1  0  0  0
  6  7  2  0  0  0
  7  8  1  0  0  0
  8  9  2  0  0  0
  9 10  1  0  0  0
 10 11  2  0  0  0
 11 12  1  0  0  0
 12 13  2  0  0  0
 13 14  1  0  0  0
 14 15  2  0  0  0
  2  3  1  0  0  0
  3 16  1  0  0  0
 16 17  1  0  0  0
 17 18  2  0  0  0
 18 19  1  0  0  0
 19 20  2  0  0  0
 20 21  1  0  0  0
 21 22  1  0  0  0
 21 23  2  0  0  0
 15  6  1  0  0  0
 23 17  1  0  0  0
 15 10  1  0  0  0
  3  4  1  0  0  0
M  END
> <minimizedAffinity>
-7.08662

> <CNNscore>
0.7890028954

> <CNNaffinity>
5.5990748405

> <CNN_VS>
4.4176864624

> <CNNaffinity_variance>
0.0534548983

$$$$



 23 25  0  0  0  0  0  0  0  0999 V2000
    8.0669    1.0747   21.4849 O   0  0  0  0  0  0  0  0  0  0  0  0
    7.3365   -0.0886   22.0878 C   0  0  0  0  0  0  0  0  0  0  0  0
    7.6345   -0.5133   23.4952 N   0  0  0  0  0  0  0  0  0  0  0  0
    7.1552   -1.2768   23.8910 H   0  0  0  0  0  0  0  0  0  0  0  0
    6.3082   -0.8270   21.2834 C   0  0  0  0  0  0  0  0  0  0  0  0
    5.7021   -0.1852   20.0706 C   0  0  0  0  0  0  0  0  0  0  0  0
    6.2175   -0.5275   18.7042 C   0  0  0  0  0  0  0  0  0  0  0  0
    5.6114    0.1142   17.4915 N   0  0  0  0  0  0  0  0  0  0  0  0
    4.4898    1.0983   17.6451 C   0  0  0  0  0  0  0  0  0  0  0  0
    3.9743    1.4407   19.0116 C   0  0  0  0  0  0  0  0  0  0  0  0
    2.8528    2.4248   19.1653 C   0  0  0  0  0  0  0  0  0  0  0  0
    2.3374    2.7671   20.5317 C   0  0  0  0  0  0  0  0  0  0  0  0
    2.9435    2.1253   21.7444 C   0  0  0  0  0  0  0  0  0  0  0  0
    4.0650    1.1412   21.5908 C   0  0  0  0  0  0  0  0  0  0  0  0
    4.5805    0.7989   20.2243 C   0  0  0  0  0  0  0  0  0  0  0  0
    8.6629    0.2252   24.2997 C   0  0  0  0  0  0  0  0  0  0  0  0
   10.0724    0.3325   23.7978 C   0  0  0  0  0  0  0  0  0  0  0  0
   10.6078    1.6580   23.3433 C   0  0  0  0  0  0  0  0  0  0  0  0
   12.0173    1.7653   22.8414 C   0  0  0  0  0  0  0  0  0  0  0  0
   12.8913    0.5471   22.7941 C   0  0  0  0  0  0  0  0  0  0  0  0
   12.3559   -0.7783   23.2486 C   0  0  0  0  0  0  0  0  0  0  0  0
   13.2300   -1.9964   23.2012 Cl  0  0  0  0  0  0  0  0  0  0  0  0
   10.9464   -0.8856   23.7504 C   0  0  0  0  0  0  0  0  0  0  0  0
  1  2  2  0  0  0
  2  5  1  0  0  0
  5  6  1  0  0  0
  6  7  2  0  0  0
  7  8  1  0  0  0
  8  9  2  0  0  0
  9 10  1  0  0  0
 10 11  2  0  0  0
 11 12  1  0  0  0
 12 13  2  0  0  0
 13 14  1  0  0  0
 14 15  2  0  0  0
  2  3  1  0  0  0
  3 16  1  0  0  0
 16 17  1  0  0  0
 17 18  2  0  0  0
 18 19  1  0  0  0
 19 20  2  0  0  0
 20 21  1  0  0  0
 21 22  1  0  0  0
 21 23  2  0  0  0
 15  6  1  0  0  0
 23 17  1  0  0  0
 15 10  1  0  0  0
  3  4  1  0  0  0
M  END
> <minimizedAffinity>
-6.76842

> <CNNscore>
0.7309560180

> <CNNaffinity>
5.3793272972

> <CNN_VS>
3.9320516586

> <CNNaffinity_variance>
0.1531633288

$$$$



 23 25  0  0  0  0  0  0  0  0999 V2000
    8.1929    1.0876   21.6948 O   0  0  0  0  0  0  0  0  0  0  0  0
    7.4963   -0.1234   22.2411 C   0  0  0  0  0  0  0  0  0  0  0  0
    7.8409   -0.6336   23.6089 N   0  0  0  0  0  0  0  0  0  0  0  0
    7.3837   -1.4284   23.9674 H   0  0  0  0  0  0  0  0  0  0  0  0
    6.4552   -0.8241   21.4195 C   0  0  0  0  0  0  0  0  0  0  0  0
    5.8804   -0.1539   20.2069 C   0  0  0  0  0  0  0  0  0  0  0  0
    6.5224   -0.3512   18.8657 C   0  0  0  0  0  0  0  0  0  0  0  0
    5.9475    0.3190   17.6531 N   0  0  0  0  0  0  0  0  0  0  0  0
    4.7307    1.1866   17.7818 C   0  0  0  0  0  0  0  0  0  0  0  0
    4.0887    1.3840   19.1230 C   0  0  0  0  0  0  0  0  0  0  0  0
    2.8719    2.2516   19.2516 C   0  0  0  0  0  0  0  0  0  0  0  0
    2.2299    2.4489   20.5928 C   0  0  0  0  0  0  0  0  0  0  0  0
    2.8047    1.7787   21.8054 C   0  0  0  0  0  0  0  0  0  0  0  0
    4.0215    0.9111   21.6768 C   0  0  0  0  0  0  0  0  0  0  0  0
    4.6635    0.7137   20.3356 C   0  0  0  0  0  0  0  0  0  0  0  0
    8.8821    0.0672   24.4305 C   0  0  0  0  0  0  0  0  0  0  0  0
   10.2820   -0.4690   24.4830 C   0  0  0  0  0  0  0  0  0  0  0  0
   11.3317    0.0836   23.5649 C   0  0  0  0  0  0  0  0  0  0  0  0
   12.7316   -0.4526   23.6175 C   0  0  0  0  0  0  0  0  0  0  0  0
   13.0818   -1.5413   24.5882 C   0  0  0  0  0  0  0  0  0  0  0  0
   12.0321   -2.0937   25.5063 C   0  0  0  0  0  0  0  0  0  0  0  0
   12.3824   -3.1823   26.4769 Cl  0  0  0  0  0  0  0  0  0  0  0  0
   10.6322   -1.5576   25.4537 C   0  0  0  0  0  0  0  0  0  0  0  0
  1  2  2  0  0  0
  2  5  1  0  0  0
  5  6  1  0  0  0
  6  7  2  0  0  0
  7  8  1  0  0  0
  8  9  2  0  0  0
  9 10  1  0  0  0
 10 11  2  0  0  0
 11 12  1  0  0  0
 12 13  2  0  0  0
 13 14  1  0  0  0
 14 15  2  0  0  0
  2  3  1  0  0  0
  3 16  1  0  0  0
 16 17  1  0  0  0
 17 18  2  0  0  0
 18 19  1  0  0  0
 19 20  2  0  0  0
 20 21  1  0  0  0
 21 22  1  0  0  0
 21 23  2  0  0  0
 15  6  1  0  0  0
 23 17  1  0  0  0
 15 10  1  0  0  0
  3  4  1  0  0  0
M  END
> <minimizedAffinity>
-7.07966

> <CNNscore>
0.7275587916

> <CNNaffinity>
5.2479162216

> <CNN_VS>
3.8181676865

> <CNNaffinity_variance>
0.0640749484

$$$$



 23 25  0  0  0  0  0  0  0  0999 V2000
    7.4264   -1.3182   22.7692 O   0  0  0  0  0  0  0  0  0  0  0  0
    7.4606   -1.2585   24.2677 C   0  0  0  0  0  0  0  0  0  0  0  0
    6.5300   -2.1152   25.0739 N   0  0  0  0  0  0  0  0  0  0  0  0
    6.5524   -2.0761   26.0573 H   0  0  0  0  0  0  0  0  0  0  0  0
    8.4255   -0.3421   24.9600 C   0  0  0  0  0  0  0  0  0  0  0  0
    9.8388   -0.2322   24.4698 C   0  0  0  0  0  0  0  0  0  0  0  0
   10.1981    0.7993   23.4418 C   0  0  0  0  0  0  0  0  0  0  0  0
   11.6115    0.9092   22.9516 N   0  0  0  0  0  0  0  0  0  0  0  0
   12.6656   -0.0125   23.4894 C   0  0  0  0  0  0  0  0  0  0  0  0
   12.3064   -1.0441   24.5174 C   0  0  0  0  0  0  0  0  0  0  0  0
   13.3605   -1.9658   25.0552 C   0  0  0  0  0  0  0  0  0  0  0  0
   13.0012   -2.9974   26.0832 C   0  0  0  0  0  0  0  0  0  0  0  0
   11.5878   -3.1072   26.5734 C   0  0  0  0  0  0  0  0  0  0  0  0
   10.5337   -2.1855   26.0356 C   0  0  0  0  0  0  0  0  0  0  0  0
   10.8930   -1.1540   25.0076 C   0  0  0  0  0  0  0  0  0  0  0  0
    5.5651   -3.0317   24.3815 C   0  0  0  0  0  0  0  0  0  0  0  0
    6.0416   -4.3408   23.8254 C   0  0  0  0  0  0  0  0  0  0  0  0
    6.9774   -5.1989   24.6242 C   0  0  0  0  0  0  0  0  0  0  0  0
    7.4539   -6.5080   24.0681 C   0  0  0  0  0  0  0  0  0  0  0  0
    6.9945   -6.9589   22.7131 C   0  0  0  0  0  0  0  0  0  0  0  0
    6.0588   -6.1008   21.9144 C   0  0  0  0  0  0  0  0  0  0  0  0
    5.5995   -6.5518   20.5596 Cl  0  0  0  0  0  0  0  0  0  0  0  0
    5.5823   -4.7917   22.4706 C   0  0  0  0  0  0  0  0  0  0  0  0
  1  2  2  0  0  0
  2  5  1  0  0  0
  5  6  1  0  0  0
  6  7  2  0  0  0
  7  8  1  0  0  0
  8  9  2  0  0  0
  9 10  1  0  0  0
 10 11  2  0  0  0
 11 12  1  0  0  0
 12 13  2  0  0  0
 13 14  1  0  0  0
 14 15  2  0  0  0
  2  3  1  0  0  0
  3 16  1  0  0  0
 16 17  1  0  0  0
 17 18  2  0  0  0
 18 19  1  0  0  0
 19 20  2  0  0  0
 20 21  1  0  0  0
 21 22  1  0  0  0
 21 23  2  0  0  0
 15  6  1  0  0  0
 23 17  1  0  0  0
 15 10  1  0  0  0
  3  4  1  0  0  0
M  END
> <minimizedAffinity>
-6.58009

> <CNNscore>
0.6597822309

> <CNNaffinity>
5.4249901772

> <CNN_VS>
3.5793120861

> <CNNaffinity_variance>
0.1901933998

$$$$



 23 25  0  0  0  0  0  0  0  0999 V2000
    9.0116    0.6002   21.6812 O   0  0  0  0  0  0  0  0  0  0  0  0
    8.5778   -0.8109   21.9470 C   0  0  0  0  0  0  0  0  0  0  0  0
    7.1205   -1.1308   22.1026 N   0  0  0  0  0  0  0  0  0  0  0  0
    6.8358   -2.0569   22.2771 H   0  0  0  0  0  0  0  0  0  0  0  0
    9.6011   -1.9020   22.0573 C   0  0  0  0  0  0  0  0  0  0  0  0
   10.7855   -1.7309   22.9617 C   0  0  0  0  0  0  0  0  0  0  0  0
   11.9030   -0.8109   22.5681 C   0  0  0  0  0  0  0  0  0  0  0  0
   13.0874   -0.6398   23.4724 N   0  0  0  0  0  0  0  0  0  0  0  0
   13.1543   -1.3886   24.7704 C   0  0  0  0  0  0  0  0  0  0  0  0
   12.0368   -2.3085   25.1641 C   0  0  0  0  0  0  0  0  0  0  0  0
   12.1037   -3.0573   26.4621 C   0  0  0  0  0  0  0  0  0  0  0  0
   10.9863   -3.9772   26.8557 C   0  0  0  0  0  0  0  0  0  0  0  0
    9.8019   -4.1484   25.9513 C   0  0  0  0  0  0  0  0  0  0  0  0
    9.7349   -3.3996   24.6533 C   0  0  0  0  0  0  0  0  0  0  0  0
   10.8524   -2.4797   24.2597 C   0  0  0  0  0  0  0  0  0  0  0  0
    6.0972   -0.0396   21.9924 C   0  0  0  0  0  0  0  0  0  0  0  0
    5.5845    0.3744   20.6449 C   0  0  0  0  0  0  0  0  0  0  0  0
    6.3153   -0.0438   19.4034 C   0  0  0  0  0  0  0  0  0  0  0  0
    5.8026    0.3701   18.0559 C   0  0  0  0  0  0  0  0  0  0  0  0
    4.5590    1.2023   17.9499 C   0  0  0  0  0  0  0  0  0  0  0  0
    3.8283    1.6205   19.1913 C   0  0  0  0  0  0  0  0  0  0  0  0
    2.5848    2.4526   19.0852 Cl  0  0  0  0  0  0  0  0  0  0  0  0
    4.3410    1.2065   20.5388 C   0  0  0  0  0  0  0  0  0  0  0  0
  1  2  2  0  0  0
  2  5  1  0  0  0
  5  6  1  0  0  0
  6  7  2  0  0  0
  7  8  1  0  0  0
  8  9  2  0  0  0
  9 10  1  0  0  0
 10 11  2  0  0  0
 11 12  1  0  0  0
 12 13  2  0  0  0
 13 14  1  0  0  0
 14 15  2  0  0  0
  2  3  1  0  0  0
  3 16  1  0  0  0
 16 17  1  0  0  0
 17 18  2  0  0  0
 18 19  1  0  0  0
 19 20  2  0  0  0
 20 21  1  0  0  0
 21 22  1  0  0  0
 21 23  2  0  0  0
 15  6  1  0  0  0
 23 17  1  0  0  0
 15 10  1  0  0  0
  3  4  1  0  0  0
M  END
> <minimizedAffinity>
-7.66603

> <CNNscore>
0.6400694847

> <CNNaffinity>
5.2694578171

> <CNN_VS>
3.3728191853

> <CNNaffinity_variance>
0.1451088041

$$$$
