


 40 41  0  0  0  0  0  0  0  0999 V2000
    8.5618    1.2971   21.9169 C   0  0  0  0  0  0  0  0  0  0  0  0
    8.1392    2.6745   21.4995 O   0  0  0  0  0  0  0  0  0  0  0  0
    9.9090    1.0827   22.5407 N   0  0  0  0  0  0  0  0  0  0  0  0
   10.4664   -0.2299   23.0059 C   0  0  0  0  0  0  0  0  0  0  0  0
   11.8372    0.0194   23.5616 C   0  0  0  0  0  0  0  0  0  0  0  0
   12.1270    1.4861   23.4399 C   0  0  0  0  0  0  0  0  0  0  0  0
   10.9353    2.1432   22.8089 C   0  0  0  0  0  0  0  0  0  0  0  0
   12.7566   -1.0162   24.1378 C   0  0  0  0  0  0  0  0  0  0  0  0
   13.6761   -2.0518   24.7141 F   0  0  0  0  0  0  0  0  0  0  0  0
   12.2214   -0.7284   25.5092 F   0  0  0  0  0  0  0  0  0  0  0  0
   13.2919   -1.3040   22.7665 F   0  0  0  0  0  0  0  0  0  0  0  0
   10.7947    3.6044   22.5004 C   0  0  0  0  0  0  0  0  0  0  0  0
   11.6262    4.2257   21.4176 O   0  0  0  0  0  0  0  0  0  0  0  0
    9.8224    4.4442   23.2746 N   0  0  0  0  0  0  0  0  0  0  0  0
    9.2766    4.0365   23.9853 H   0  0  0  0  0  0  0  0  0  0  0  0
    9.6819    5.9054   22.9660 C   0  0  0  0  0  0  0  0  0  0  0  0
   10.8943    6.7200   22.6246 C   0  0  0  0  0  0  0  0  0  0  0  0
   11.3966    7.7563   23.5857 N   0  0  0  0  0  0  0  0  0  0  0  0
   10.9138    7.9070   24.4715 H   0  0  0  0  0  0  0  0  0  0  0  0
   12.2211    8.3102   23.3536 H   0  0  0  0  0  0  0  0  0  0  0  0
   11.7382    8.4609   24.2393 H   0  0  0  0  0  0  0  0  0  0  0  0
    8.3288    6.5521   22.9988 C   0  0  0  0  0  0  0  0  0  0  0  0
    7.1066    5.7518   22.6583 C   0  0  0  0  0  0  0  0  0  0  0  0
    6.2511    5.9248   21.4384 C   0  0  0  0  0  0  0  0  0  0  0  0
    5.1412    4.9179   21.5042 C   0  0  0  0  0  0  0  0  0  0  0  0
    5.3107    4.1226   22.7646 N   0  0  0  0  0  0  0  0  0  0  0  0
    6.5255    4.6380   23.4780 C   0  0  0  0  0  0  0  0  0  0  0  0
    7.0645    4.1290   24.7820 O   0  0  0  0  0  0  0  0  0  0  0  0
    4.7272    3.3909   23.0701 H   0  0  0  0  0  0  0  0  0  0  0  0
    7.6372    0.1342   21.7104 C   0  0  0  0  0  0  0  0  0  0  0  0
    6.1970    0.3531   19.5591 C   0  0  0  0  0  0  0  0  0  0  0  0
    5.4295    1.4784   20.1875 O   0  0  0  0  0  0  0  0  0  0  0  0
    7.3008   -0.3190   20.3206 N   0  0  0  0  0  0  0  0  0  0  0  0
    7.8045   -1.0575   19.9082 H   0  0  0  0  0  0  0  0  0  0  0  0
    4.9859    0.7486   17.2948 C   0  0  0  0  0  0  0  0  0  0  0  0
    5.8606   -0.1001   18.1693 O   0  0  0  0  0  0  0  0  0  0  0  0
    7.0490   -0.5757   22.8937 C   0  0  0  0  0  0  0  0  0  0  0  0
    7.4914   -1.8911   22.3245 C   0  0  0  0  0  0  0  0  0  0  0  0
    6.6067    0.7397   23.4629 C   0  0  0  0  0  0  0  0  0  0  0  0
    6.4608   -1.2855   24.0770 C   0  0  0  0  0  0  0  0  0  0  0  0
 35 36  1  0  0  0
 36 31  1  0  0  0
 31 32  2  0  0  0
 31 33  1  0  0  0
 30 33  1  0  0  0
 30  1  1  0  0  0
  1  2  2  0  0  0
  1  3  1  0  0  0
  3  4  1  0  0  0
  4  5  1  0  0  0
  5  8  1  0  0  0
  8  9  1  0  0  0
  8 10  1  0  0  0
  8 11  1  0  0  0
  5  6  1  0  0  0
  6  7  1  0  0  0
  7 12  1  0  0  0
 12 13  2  0  0  0
 12 14  1  0  0  0
 14 16  1  0  0  0
 16 17  1  0  0  0
 17 18  1  0  0  0
 16 22  1  0  0  0
 23 22  1  0  0  0
 23 24  1  0  0  0
 24 25  1  0  0  0
 25 26  1  0  0  0
 26 27  1  0  0  0
 27 28  2  0  0  0
 30 37  1  0  0  0
 37 38  1  0  0  0
 37 39  1  0  0  0
 37 40  1  0  0  0
  7  3  1  0  0  0
 27 23  1  0  0  0
 33 34  1  0  0  0
 14 15  1  0  0  0
 18 19  1  0  0  0
 18 20  1  0  0  0
 18 21  1  0  0  0
 26 29  1  0  0  0
M  CHG 1  18   1
M  END
> <minimizedAffinity>
-7.14695

> <CNNscore>
0.5290515423

> <CNNaffinity>
6.6443276405

> <CNN_VS>
3.5151917934

> <CNNaffinity_variance>
0.1909247935

$$$$



 40 41  0  0  0  0  0  0  0  0999 V2000
    6.8352   -2.5656   23.0472 C   0  0  0  0  0  0  0  0  0  0  0  0
    5.6248   -1.9262   22.4341 O   0  0  0  0  0  0  0  0  0  0  0  0
    8.1989   -2.0020   22.7776 N   0  0  0  0  0  0  0  0  0  0  0  0
    9.4943   -2.5313   23.3179 C   0  0  0  0  0  0  0  0  0  0  0  0
   10.6027   -1.6666   22.7946 C   0  0  0  0  0  0  0  0  0  0  0  0
    9.9923   -0.6029   21.9309 C   0  0  0  0  0  0  0  0  0  0  0  0
    8.5067   -0.8102   21.9204 C   0  0  0  0  0  0  0  0  0  0  0  0
   12.0647   -1.8359   23.0841 C   0  0  0  0  0  0  0  0  0  0  0  0
   13.5267   -2.0052   23.3737 F   0  0  0  0  0  0  0  0  0  0  0  0
   11.7293   -2.5919   24.3355 F   0  0  0  0  0  0  0  0  0  0  0  0
   12.4001   -1.0799   21.8328 F   0  0  0  0  0  0  0  0  0  0  0  0
    7.5048    0.0273   21.1823 C   0  0  0  0  0  0  0  0  0  0  0  0
    7.6193    1.5229   21.1998 O   0  0  0  0  0  0  0  0  0  0  0  0
    6.3885   -0.6306   20.4268 N   0  0  0  0  0  0  0  0  0  0  0  0
    6.3134   -1.6122   20.4153 H   0  0  0  0  0  0  0  0  0  0  0  0
    5.3867    0.2070   19.6887 C   0  0  0  0  0  0  0  0  0  0  0  0
    5.5974    0.5237   18.2377 C   0  0  0  0  0  0  0  0  0  0  0  0
    4.4583    1.0402   17.4097 N   0  0  0  0  0  0  0  0  0  0  0  0
    3.5404    1.1761   17.8333 H   0  0  0  0  0  0  0  0  0  0  0  0
    4.6015    1.2557   16.4231 H   0  0  0  0  0  0  0  0  0  0  0  0
    3.6837    1.3915   16.8467 H   0  0  0  0  0  0  0  0  0  0  0  0
    4.1741    0.7278   20.4016 C   0  0  0  0  0  0  0  0  0  0  0  0
    4.0725    2.1851   20.7422 C   0  0  0  0  0  0  0  0  0  0  0  0
    4.7593    2.8736   21.8842 C   0  0  0  0  0  0  0  0  0  0  0  0
    4.3775    4.3238   21.8483 C   0  0  0  0  0  0  0  0  0  0  0  0
    3.4548    4.5316   20.6841 N   0  0  0  0  0  0  0  0  0  0  0  0
    3.2663    3.2097   20.0004 C   0  0  0  0  0  0  0  0  0  0  0  0
    2.4201    2.9570   18.7879 O   0  0  0  0  0  0  0  0  0  0  0  0
    3.0449    5.3855   20.4158 H   0  0  0  0  0  0  0  0  0  0  0  0
    6.6820   -3.7686   23.9300 C   0  0  0  0  0  0  0  0  0  0  0  0
    5.1797   -4.0382   26.0325 C   0  0  0  0  0  0  0  0  0  0  0  0
    4.1062   -4.6559   25.1863 O   0  0  0  0  0  0  0  0  0  0  0  0
    6.4675   -3.5946   25.4044 N   0  0  0  0  0  0  0  0  0  0  0  0
    7.1721   -3.1892   25.9598 H   0  0  0  0  0  0  0  0  0  0  0  0
    3.6902   -3.2574   28.0129 C   0  0  0  0  0  0  0  0  0  0  0  0
    4.9652   -3.8642   27.5069 O   0  0  0  0  0  0  0  0  0  0  0  0
    6.7431   -5.1457   23.3384 C   0  0  0  0  0  0  0  0  0  0  0  0
    7.7516   -5.5459   24.3742 C   0  0  0  0  0  0  0  0  0  0  0  0
    5.7347   -4.7455   22.3026 C   0  0  0  0  0  0  0  0  0  0  0  0
    6.8043   -6.5227   22.7468 C   0  0  0  0  0  0  0  0  0  0  0  0
 35 36  1  0  0  0
 36 31  1  0  0  0
 31 32  2  0  0  0
 31 33  1  0  0  0
 30 33  1  0  0  0
 30  1  1  0  0  0
  1  2  2  0  0  0
  1  3  1  0  0  0
  3  4  1  0  0  0
  4  5  1  0  0  0
  5  8  1  0  0  0
  8  9  1  0  0  0
  8 10  1  0  0  0
  8 11  1  0  0  0
  5  6  1  0  0  0
  6  7  1  0  0  0
  7 12  1  0  0  0
 12 13  2  0  0  0
 12 14  1  0  0  0
 14 16  1  0  0  0
 16 17  1  0  0  0
 17 18  1  0  0  0
 16 22  1  0  0  0
 23 22  1  0  0  0
 23 24  1  0  0  0
 24 25  1  0  0  0
 25 26  1  0  0  0
 26 27  1  0  0  0
 27 28  2  0  0  0
 30 37  1  0  0  0
 37 38  1  0  0  0
 37 39  1  0  0  0
 37 40  1  0  0  0
  7  3  1  0  0  0
 27 23  1  0  0  0
 33 34  1  0  0  0
 14 15  1  0  0  0
 18 19  1  0  0  0
 18 20  1  0  0  0
 18 21  1  0  0  0
 26 29  1  0  0  0
M  CHG 1  18   1
M  END
> <minimizedAffinity>
-6.99377

> <CNNscore>
0.2657879293

> <CNNaffinity>
6.0594801903

> <CNN_VS>
1.6105366945

> <CNNaffinity_variance>
0.2757174373

$$$$



 40 41  0  0  0  0  0  0  0  0999 V2000
    6.7666   -0.9794   22.5172 C   0  0  0  0  0  0  0  0  0  0  0  0
    5.7792   -2.0524   22.8686 O   0  0  0  0  0  0  0  0  0  0  0  0
    8.2325   -1.2071   22.7395 N   0  0  0  0  0  0  0  0  0  0  0  0
    9.3319   -0.2322   22.4380 C   0  0  0  0  0  0  0  0  0  0  0  0
   10.6352   -0.8722   22.8145 C   0  0  0  0  0  0  0  0  0  0  0  0
   10.3413   -2.2427   23.3487 C   0  0  0  0  0  0  0  0  0  0  0  0
    8.8564   -2.4496   23.3024 C   0  0  0  0  0  0  0  0  0  0  0  0
   11.9938   -0.2508   22.6803 C   0  0  0  0  0  0  0  0  0  0  0  0
   13.3524    0.3706   22.5461 F   0  0  0  0  0  0  0  0  0  0  0  0
   11.6448    0.7429   23.7484 F   0  0  0  0  0  0  0  0  0  0  0  0
   12.3428   -1.2444   21.6122 F   0  0  0  0  0  0  0  0  0  0  0  0
    8.1239   -3.6827   23.7418 C   0  0  0  0  0  0  0  0  0  0  0  0
    8.2699   -4.1802   25.1493 O   0  0  0  0  0  0  0  0  0  0  0  0
    7.2454   -4.4182   22.7737 N   0  0  0  0  0  0  0  0  0  0  0  0
    7.1495   -4.0917   21.8498 H   0  0  0  0  0  0  0  0  0  0  0  0
    6.5130   -5.6513   23.2132 C   0  0  0  0  0  0  0  0  0  0  0  0
    6.9441   -6.9981   22.7129 C   0  0  0  0  0  0  0  0  0  0  0  0
    7.3293   -8.0719   23.6869 N   0  0  0  0  0  0  0  0  0  0  0  0
    7.2981   -7.8862   24.6894 H   0  0  0  0  0  0  0  0  0  0  0  0
    7.6224   -8.9877   23.3467 H   0  0  0  0  0  0  0  0  0  0  0  0
    7.5912   -8.8020   24.3492 H   0  0  0  0  0  0  0  0  0  0  0  0
    5.3494   -5.5375   24.1529 C   0  0  0  0  0  0  0  0  0  0  0  0
    4.2082   -6.5059   24.0543 C   0  0  0  0  0  0  0  0  0  0  0  0
    3.0154   -6.3742   23.1542 C   0  0  0  0  0  0  0  0  0  0  0  0
    2.1294   -7.5628   23.3820 C   0  0  0  0  0  0  0  0  0  0  0  0
    2.7744   -8.4292   24.4229 N   0  0  0  0  0  0  0  0  0  0  0  0
    4.0593   -7.7759   24.8384 C   0  0  0  0  0  0  0  0  0  0  0  0
    5.0255   -8.3006   25.8587 O   0  0  0  0  0  0  0  0  0  0  0  0
    2.4173   -9.2776   24.7720 H   0  0  0  0  0  0  0  0  0  0  0  0
    6.2882    0.3213   21.9433 C   0  0  0  0  0  0  0  0  0  0  0  0
    5.7994   -0.3723   19.4877 C   0  0  0  0  0  0  0  0  0  0  0  0
    5.0667   -1.5865   19.9765 O   0  0  0  0  0  0  0  0  0  0  0  0
    6.4101    0.5816   20.4711 N   0  0  0  0  0  0  0  0  0  0  0  0
    6.8910    1.3785   20.1503 H   0  0  0  0  0  0  0  0  0  0  0  0
    5.1543    1.0133   17.3867 C   0  0  0  0  0  0  0  0  0  0  0  0
    5.9214   -0.1120   18.0154 O   0  0  0  0  0  0  0  0  0  0  0  0
    5.6878    1.3617   22.8417 C   0  0  0  0  0  0  0  0  0  0  0  0
    6.9670    2.1434   22.7913 C   0  0  0  0  0  0  0  0  0  0  0  0
    4.4086    0.5800   22.8921 C   0  0  0  0  0  0  0  0  0  0  0  0
    5.0874    2.4021   23.7401 C   0  0  0  0  0  0  0  0  0  0  0  0
 35 36  1  0  0  0
 36 31  1  0  0  0
 31 32  2  0  0  0
 31 33  1  0  0  0
 30 33  1  0  0  0
 30  1  1  0  0  0
  1  2  2  0  0  0
  1  3  1  0  0  0
  3  4  1  0  0  0
  4  5  1  0  0  0
  5  8  1  0  0  0
  8  9  1  0  0  0
  8 10  1  0  0  0
  8 11  1  0  0  0
  5  6  1  0  0  0
  6  7  1  0  0  0
  7 12  1  0  0  0
 12 13  2  0  0  0
 12 14  1  0  0  0
 14 16  1  0  0  0
 16 17  1  0  0  0
 17 18  1  0  0  0
 16 22  1  0  0  0
 23 22  1  0  0  0
 23 24  1  0  0  0
 24 25  1  0  0  0
 25 26  1  0  0  0
 26 27  1  0  0  0
 27 28  2  0  0  0
 30 37  1  0  0  0
 37 38  1  0  0  0
 37 39  1  0  0  0
 37 40  1  0  0  0
  7  3  1  0  0  0
 27 23  1  0  0  0
 33 34  1  0  0  0
 14 15  1  0  0  0
 18 19  1  0  0  0
 18 20  1  0  0  0
 18 21  1  0  0  0
 26 29  1  0  0  0
M  CHG 1  18   1
M  END
> <minimizedAffinity>
-7.06476

> <CNNscore>
0.2572008669

> <CNNaffinity>
6.5033340454

> <CNN_VS>
1.6726632118

> <CNNaffinity_variance>
0.2118849754

$$$$



 40 41  0  0  0  0  0  0  0  0999 V2000
    7.0742   -2.3217   23.4535 C   0  0  0  0  0  0  0  0  0  0  0  0
    5.8424   -1.6846   22.8820 O   0  0  0  0  0  0  0  0  0  0  0  0
    8.4314   -1.8463   23.0266 N   0  0  0  0  0  0  0  0  0  0  0  0
    9.7460   -2.3841   23.5090 C   0  0  0  0  0  0  0  0  0  0  0  0
   10.8393   -1.6199   22.8230 C   0  0  0  0  0  0  0  0  0  0  0  0
   10.2004   -0.6098   21.9166 C   0  0  0  0  0  0  0  0  0  0  0  0
    8.7123   -0.7498   22.0425 C   0  0  0  0  0  0  0  0  0  0  0  0
   12.3127   -1.8291   23.0104 C   0  0  0  0  0  0  0  0  0  0  0  0
   13.7862   -2.0383   23.1978 F   0  0  0  0  0  0  0  0  0  0  0  0
   12.5761   -1.1479   21.7002 F   0  0  0  0  0  0  0  0  0  0  0  0
   12.0494   -2.5103   24.3206 F   0  0  0  0  0  0  0  0  0  0  0  0
    7.6853    0.0640   21.3124 C   0  0  0  0  0  0  0  0  0  0  0  0
    7.7435    1.5622   21.3595 O   0  0  0  0  0  0  0  0  0  0  0  0
    6.6001   -0.6203   20.5351 N   0  0  0  0  0  0  0  0  0  0  0  0
    6.5619   -1.6035   20.5041 H   0  0  0  0  0  0  0  0  0  0  0  0
    5.5732    0.1936   19.8050 C   0  0  0  0  0  0  0  0  0  0  0  0
    5.7811    0.5432   18.3612 C   0  0  0  0  0  0  0  0  0  0  0  0
    4.5985    0.7560   17.4633 N   0  0  0  0  0  0  0  0  0  0  0  0
    3.6530    0.6631   17.8345 H   0  0  0  0  0  0  0  0  0  0  0  0
    4.7399    0.9937   16.4815 H   0  0  0  0  0  0  0  0  0  0  0  0
    3.7944    0.9008   16.8527 H   0  0  0  0  0  0  0  0  0  0  0  0
    4.3383    0.6580   20.5188 C   0  0  0  0  0  0  0  0  0  0  0  0
    4.1416    2.1171   20.8054 C   0  0  0  0  0  0  0  0  0  0  0  0
    4.7180    2.8732   21.9656 C   0  0  0  0  0  0  0  0  0  0  0  0
    4.2666    4.2998   21.8594 C   0  0  0  0  0  0  0  0  0  0  0  0
    3.4113    4.4254   20.6335 N   0  0  0  0  0  0  0  0  0  0  0  0
    3.3341    3.0763   19.9821 C   0  0  0  0  0  0  0  0  0  0  0  0
    2.5814    2.7448   18.7277 O   0  0  0  0  0  0  0  0  0  0  0  0
    2.9769    5.2486   20.3128 H   0  0  0  0  0  0  0  0  0  0  0  0
    6.9489   -3.4341   24.4518 C   0  0  0  0  0  0  0  0  0  0  0  0
    6.6144   -5.5405   22.9682 C   0  0  0  0  0  0  0  0  0  0  0  0
    5.4942   -4.8533   22.2451 O   0  0  0  0  0  0  0  0  0  0  0  0
    7.3417   -4.8310   24.0716 N   0  0  0  0  0  0  0  0  0  0  0  0
    8.0769   -5.2821   24.5461 H   0  0  0  0  0  0  0  0  0  0  0  0
    7.5177   -7.8839   23.6336 C   0  0  0  0  0  0  0  0  0  0  0  0
    7.0072   -6.9374   22.5879 O   0  0  0  0  0  0  0  0  0  0  0  0
    6.4308   -3.1498   25.8305 C   0  0  0  0  0  0  0  0  0  0  0  0
    7.8317   -2.9016   26.3058 C   0  0  0  0  0  0  0  0  0  0  0  0
    5.0299   -3.3979   25.3552 C   0  0  0  0  0  0  0  0  0  0  0  0
    5.9127   -2.8654   27.2092 C   0  0  0  0  0  0  0  0  0  0  0  0
 35 36  1  0  0  0
 36 31  1  0  0  0
 31 32  2  0  0  0
 31 33  1  0  0  0
 30 33  1  0  0  0
 30  1  1  0  0  0
  1  2  2  0  0  0
  1  3  1  0  0  0
  3  4  1  0  0  0
  4  5  1  0  0  0
  5  8  1  0  0  0
  8  9  1  0  0  0
  8 10  1  0  0  0
  8 11  1  0  0  0
  5  6  1  0  0  0
  6  7  1  0  0  0
  7 12  1  0  0  0
 12 13  2  0  0  0
 12 14  1  0  0  0
 14 16  1  0  0  0
 16 17  1  0  0  0
 17 18  1  0  0  0
 16 22  1  0  0  0
 23 22  1  0  0  0
 23 24  1  0  0  0
 24 25  1  0  0  0
 25 26  1  0  0  0
 26 27  1  0  0  0
 27 28  2  0  0  0
 30 37  1  0  0  0
 37 38  1  0  0  0
 37 39  1  0  0  0
 37 40  1  0  0  0
  7  3  1  0  0  0
 27 23  1  0  0  0
 33 34  1  0  0  0
 14 15  1  0  0  0
 18 19  1  0  0  0
 18 20  1  0  0  0
 18 21  1  0  0  0
 26 29  1  0  0  0
M  CHG 1  18   1
M  END
> <minimizedAffinity>
-7.24284

> <CNNscore>
0.2400050461

> <CNNaffinity>
6.1370749474

> <CNN_VS>
1.4729290009

> <CNNaffinity_variance>
0.2259645909

$$$$



 40 41  0  0  0  0  0  0  0  0999 V2000
    7.2898   -2.3052   23.6140 C   0  0  0  0  0  0  0  0  0  0  0  0
    6.1106   -1.6714   22.9375 O   0  0  0  0  0  0  0  0  0  0  0  0
    8.6030   -1.5821   23.6652 N   0  0  0  0  0  0  0  0  0  0  0  0
    9.8632   -2.0870   24.3033 C   0  0  0  0  0  0  0  0  0  0  0  0
   10.9257   -1.0442   24.1198 C   0  0  0  0  0  0  0  0  0  0  0  0
   10.3222    0.1052   23.3683 C   0  0  0  0  0  0  0  0  0  0  0  0
    8.8867   -0.2273   23.0874 C   0  0  0  0  0  0  0  0  0  0  0  0
   12.3428   -1.1348   24.6031 C   0  0  0  0  0  0  0  0  0  0  0  0
   13.7599   -1.2255   25.0863 F   0  0  0  0  0  0  0  0  0  0  0  0
   11.8565   -1.1763   26.0214 F   0  0  0  0  0  0  0  0  0  0  0  0
   12.8291   -1.0933   23.1847 F   0  0  0  0  0  0  0  0  0  0  0  0
    7.9070    0.6424   22.3568 C   0  0  0  0  0  0  0  0  0  0  0  0
    8.1917    1.0738   20.9487 O   0  0  0  0  0  0  0  0  0  0  0  0
    6.6425    1.0807   23.0343 N   0  0  0  0  0  0  0  0  0  0  0  0
    6.4556    0.7975   23.9585 H   0  0  0  0  0  0  0  0  0  0  0  0
    5.6628    1.9504   22.3036 C   0  0  0  0  0  0  0  0  0  0  0  0
    5.8333    3.4407   22.3091 C   0  0  0  0  0  0  0  0  0  0  0  0
    7.1397    4.0476   21.8909 N   0  0  0  0  0  0  0  0  0  0  0  0
    7.9122    3.4470   21.6029 H   0  0  0  0  0  0  0  0  0  0  0  0
    7.2556    5.0610   21.8946 H   0  0  0  0  0  0  0  0  0  0  0  0
    8.0281    4.4604   21.6066 H   0  0  0  0  0  0  0  0  0  0  0  0
    4.5126    1.3298   21.5675 C   0  0  0  0  0  0  0  0  0  0  0  0
    4.5168    1.2878   20.0681 C   0  0  0  0  0  0  0  0  0  0  0  0
    5.3001    0.3346   19.2150 C   0  0  0  0  0  0  0  0  0  0  0  0
    5.0058    0.6493   17.7782 C   0  0  0  0  0  0  0  0  0  0  0  0
    4.0405    1.7970   17.7433 N   0  0  0  0  0  0  0  0  0  0  0  0
    3.7383    2.1916   19.1587 C   0  0  0  0  0  0  0  0  0  0  0  0
    2.8191    3.2961   19.5889 O   0  0  0  0  0  0  0  0  0  0  0  0
    3.6704    2.2174   16.9337 H   0  0  0  0  0  0  0  0  0  0  0  0
    7.1558   -3.6621   24.2391 C   0  0  0  0  0  0  0  0  0  0  0  0
    8.0520   -3.3591   26.6589 C   0  0  0  0  0  0  0  0  0  0  0  0
    7.0884   -2.2299   26.8744 O   0  0  0  0  0  0  0  0  0  0  0  0
    8.0857   -4.0752   25.3413 N   0  0  0  0  0  0  0  0  0  0  0  0
    8.7181   -4.8163   25.1999 H   0  0  0  0  0  0  0  0  0  0  0  0
   10.3919   -4.1725   27.4422 C   0  0  0  0  0  0  0  0  0  0  0  0
    8.9819   -3.7723   27.7611 O   0  0  0  0  0  0  0  0  0  0  0  0
    6.0919   -4.6059   23.7622 C   0  0  0  0  0  0  0  0  0  0  0  0
    5.1809   -4.1313   24.8553 C   0  0  0  0  0  0  0  0  0  0  0  0
    7.0030   -5.0804   22.6691 C   0  0  0  0  0  0  0  0  0  0  0  0
    5.0281   -5.5497   23.2853 C   0  0  0  0  0  0  0  0  0  0  0  0
 35 36  1  0  0  0
 36 31  1  0  0  0
 31 32  2  0  0  0
 31 33  1  0  0  0
 30 33  1  0  0  0
 30  1  1  0  0  0
  1  2  2  0  0  0
  1  3  1  0  0  0
  3  4  1  0  0  0
  4  5  1  0  0  0
  5  8  1  0  0  0
  8  9  1  0  0  0
  8 10  1  0  0  0
  8 11  1  0  0  0
  5  6  1  0  0  0
  6  7  1  0  0  0
  7 12  1  0  0  0
 12 13  2  0  0  0
 12 14  1  0  0  0
 14 16  1  0  0  0
 16 17  1  0  0  0
 17 18  1  0  0  0
 16 22  1  0  0  0
 23 22  1  0  0  0
 23 24  1  0  0  0
 24 25  1  0  0  0
 25 26  1  0  0  0
 26 27  1  0  0  0
 27 28  2  0  0  0
 30 37  1  0  0  0
 37 38  1  0  0  0
 37 39  1  0  0  0
 37 40  1  0  0  0
  7  3  1  0  0  0
 27 23  1  0  0  0
 33 34  1  0  0  0
 14 15  1  0  0  0
 18 19  1  0  0  0
 18 20  1  0  0  0
 18 21  1  0  0  0
 26 29  1  0  0  0
M  CHG 1  18   1
M  END
> <minimizedAffinity>
-6.92863

> <CNNscore>
0.2283934653

> <CNNaffinity>
6.0401129723

> <CNN_VS>
1.3795223236

> <CNNaffinity_variance>
0.0927650630

$$$$



 40 41  0  0  0  0  0  0  0  0999 V2000
    9.4872   -0.7523   23.2734 C   0  0  0  0  0  0  0  0  0  0  0  0
    9.1469    0.0593   22.0587 O   0  0  0  0  0  0  0  0  0  0  0  0
    8.4059   -1.1615   24.2291 N   0  0  0  0  0  0  0  0  0  0  0  0
    8.5932   -1.9690   25.4792 C   0  0  0  0  0  0  0  0  0  0  0  0
    7.2505   -2.1417   26.1252 C   0  0  0  0  0  0  0  0  0  0  0  0
    6.2333   -1.4408   25.2743 C   0  0  0  0  0  0  0  0  0  0  0  0
    6.9473   -0.8351   24.1025 C   0  0  0  0  0  0  0  0  0  0  0  0
    6.9737   -2.8847   27.3985 C   0  0  0  0  0  0  0  0  0  0  0  0
    6.6968   -3.6277   28.6718 F   0  0  0  0  0  0  0  0  0  0  0  0
    5.5691   -2.3581   27.4003 F   0  0  0  0  0  0  0  0  0  0  0  0
    8.3782   -3.4112   27.3966 F   0  0  0  0  0  0  0  0  0  0  0  0
    6.3140   -0.0421   22.9979 C   0  0  0  0  0  0  0  0  0  0  0  0
    6.5166   -0.4516   21.5692 O   0  0  0  0  0  0  0  0  0  0  0  0
    5.4781    1.1605   23.3221 N   0  0  0  0  0  0  0  0  0  0  0  0
    5.3451    1.4294   24.2598 H   0  0  0  0  0  0  0  0  0  0  0  0
    4.8448    1.9535   22.2174 C   0  0  0  0  0  0  0  0  0  0  0  0
    5.1620    3.4114   22.0636 C   0  0  0  0  0  0  0  0  0  0  0  0
    4.5859    4.1874   20.9164 N   0  0  0  0  0  0  0  0  0  0  0  0
    3.9784    3.7236   20.2409 H   0  0  0  0  0  0  0  0  0  0  0  0
    4.8016    5.1788   20.8118 H   0  0  0  0  0  0  0  0  0  0  0  0
    4.1941    4.7150   20.1363 H   0  0  0  0  0  0  0  0  0  0  0  0
    3.8942    1.2884   21.2666 C   0  0  0  0  0  0  0  0  0  0  0  0
    4.2172    1.2276   19.8030 C   0  0  0  0  0  0  0  0  0  0  0  0
    5.2267    0.3236   19.1597 C   0  0  0  0  0  0  0  0  0  0  0  0
    5.2208    0.5974   17.6850 C   0  0  0  0  0  0  0  0  0  0  0  0
    4.2077    1.6706   17.4167 N   0  0  0  0  0  0  0  0  0  0  0  0
    3.5874    2.0601   18.7259 C   0  0  0  0  0  0  0  0  0  0  0  0
    2.5241    3.0995   18.9231 O   0  0  0  0  0  0  0  0  0  0  0  0
    3.9884    2.0524   16.5361 H   0  0  0  0  0  0  0  0  0  0  0  0
   10.9088   -1.1546   23.5325 C   0  0  0  0  0  0  0  0  0  0  0  0
   12.0027   -2.4059   25.5294 C   0  0  0  0  0  0  0  0  0  0  0  0
   12.5021   -1.1005   26.0739 O   0  0  0  0  0  0  0  0  0  0  0  0
   11.2060   -2.4330   24.2588 N   0  0  0  0  0  0  0  0  0  0  0  0
   10.8783   -3.2898   23.9015 H   0  0  0  0  0  0  0  0  0  0  0  0
   11.1758   -4.5653   26.7142 C   0  0  0  0  0  0  0  0  0  0  0  0
   12.2999   -3.6843   26.2557 O   0  0  0  0  0  0  0  0  0  0  0  0
   12.0332   -0.2786   23.0653 C   0  0  0  0  0  0  0  0  0  0  0  0
   11.4770    0.8620   23.8651 C   0  0  0  0  0  0  0  0  0  0  0  0
   12.5895   -1.4192   22.2655 C   0  0  0  0  0  0  0  0  0  0  0  0
   13.1577    0.5974   22.5981 C   0  0  0  0  0  0  0  0  0  0  0  0
 35 36  1  0  0  0
 36 31  1  0  0  0
 31 32  2  0  0  0
 31 33  1  0  0  0
 30 33  1  0  0  0
 30  1  1  0  0  0
  1  2  2  0  0  0
  1  3  1  0  0  0
  3  4  1  0  0  0
  4  5  1  0  0  0
  5  8  1  0  0  0
  8  9  1  0  0  0
  8 10  1  0  0  0
  8 11  1  0  0  0
  5  6  1  0  0  0
  6  7  1  0  0  0
  7 12  1  0  0  0
 12 13  2  0  0  0
 12 14  1  0  0  0
 14 16  1  0  0  0
 16 17  1  0  0  0
 17 18  1  0  0  0
 16 22  1  0  0  0
 23 22  1  0  0  0
 23 24  1  0  0  0
 24 25  1  0  0  0
 25 26  1  0  0  0
 26 27  1  0  0  0
 27 28  2  0  0  0
 30 37  1  0  0  0
 37 38  1  0  0  0
 37 39  1  0  0  0
 37 40  1  0  0  0
  7  3  1  0  0  0
 27 23  1  0  0  0
 33 34  1  0  0  0
 14 15  1  0  0  0
 18 19  1  0  0  0
 18 20  1  0  0  0
 18 21  1  0  0  0
 26 29  1  0  0  0
M  CHG 1  18   1
M  END
> <minimizedAffinity>
-7.46727

> <CNNscore>
0.2242958397

> <CNNaffinity>
5.8703527451

> <CNN_VS>
1.3166956902

> <CNNaffinity_variance>
0.0344572999

$$$$



 40 41  0  0  0  0  0  0  0  0999 V2000
    7.7639   -2.0686   22.8279 C   0  0  0  0  0  0  0  0  0  0  0  0
    6.4973   -2.7667   22.4301 O   0  0  0  0  0  0  0  0  0  0  0  0
    8.6733   -2.6881   23.8473 N   0  0  0  0  0  0  0  0  0  0  0  0
    9.9664   -2.1107   24.3420 C   0  0  0  0  0  0  0  0  0  0  0  0
   10.5416   -3.0595   25.3515 C   0  0  0  0  0  0  0  0  0  0  0  0
    9.6040   -4.2232   25.4807 C   0  0  0  0  0  0  0  0  0  0  0  0
    8.4494   -3.9937   24.5511 C   0  0  0  0  0  0  0  0  0  0  0  0
   11.8284   -2.8766   26.1003 C   0  0  0  0  0  0  0  0  0  0  0  0
   13.1152   -2.6937   26.8490 F   0  0  0  0  0  0  0  0  0  0  0  0
   11.9543   -1.4889   25.5449 F   0  0  0  0  0  0  0  0  0  0  0  0
   11.7024   -4.2643   26.6557 F   0  0  0  0  0  0  0  0  0  0  0  0
    7.2767   -4.9091   24.3589 C   0  0  0  0  0  0  0  0  0  0  0  0
    7.4949   -6.3229   23.9080 O   0  0  0  0  0  0  0  0  0  0  0  0
    5.8859   -4.4106   24.6178 N   0  0  0  0  0  0  0  0  0  0  0  0
    5.7426   -3.4826   24.9138 H   0  0  0  0  0  0  0  0  0  0  0  0
    4.7132   -5.3261   24.4256 C   0  0  0  0  0  0  0  0  0  0  0  0
    4.5555   -6.0833   23.1404 C   0  0  0  0  0  0  0  0  0  0  0  0
    3.3388   -6.9307   22.9137 N   0  0  0  0  0  0  0  0  0  0  0  0
    2.6186   -6.9921   23.6335 H   0  0  0  0  0  0  0  0  0  0  0  0
    3.2315   -7.4456   22.0398 H   0  0  0  0  0  0  0  0  0  0  0  0
    2.5114   -7.5070   22.7595 H   0  0  0  0  0  0  0  0  0  0  0  0
    3.6983   -5.4843   25.5187 C   0  0  0  0  0  0  0  0  0  0  0  0
    3.9879   -6.3791   26.6873 C   0  0  0  0  0  0  0  0  0  0  0  0
    4.0891   -5.9514   28.1214 C   0  0  0  0  0  0  0  0  0  0  0  0
    4.3908   -7.1667   28.9473 C   0  0  0  0  0  0  0  0  0  0  0  0
    4.4762   -8.3455   28.0236 N   0  0  0  0  0  0  0  0  0  0  0  0
    4.2271   -7.8587   26.6268 C   0  0  0  0  0  0  0  0  0  0  0  0
    4.2188   -8.7032   25.3871 O   0  0  0  0  0  0  0  0  0  0  0  0
    4.6628   -9.2753   28.2878 H   0  0  0  0  0  0  0  0  0  0  0  0
    8.1211   -0.7510   22.2063 C   0  0  0  0  0  0  0  0  0  0  0  0
    6.9028   -0.1857   19.9823 C   0  0  0  0  0  0  0  0  0  0  0  0
    5.6410    0.0925   20.7443 O   0  0  0  0  0  0  0  0  0  0  0  0
    8.1429   -0.6074   20.7133 N   0  0  0  0  0  0  0  0  0  0  0  0
    8.9710   -0.7900   20.2133 H   0  0  0  0  0  0  0  0  0  0  0  0
    5.7143    0.4722   17.7677 C   0  0  0  0  0  0  0  0  0  0  0  0
    6.9245   -0.0420   18.4893 O   0  0  0  0  0  0  0  0  0  0  0  0
    8.4566    0.4229   23.0777 C   0  0  0  0  0  0  0  0  0  0  0  0
    7.1511    0.2611   23.7984 C   0  0  0  0  0  0  0  0  0  0  0  0
    9.7622    0.5847   22.3570 C   0  0  0  0  0  0  0  0  0  0  0  0
    8.7921    1.5969   23.9490 C   0  0  0  0  0  0  0  0  0  0  0  0
 35 36  1  0  0  0
 36 31  1  0  0  0
 31 32  2  0  0  0
 31 33  1  0  0  0
 30 33  1  0  0  0
 30  1  1  0  0  0
  1  2  2  0  0  0
  1  3  1  0  0  0
  3  4  1  0  0  0
  4  5  1  0  0  0
  5  8  1  0  0  0
  8  9  1  0  0  0
  8 10  1  0  0  0
  8 11  1  0  0  0
  5  6  1  0  0  0
  6  7  1  0  0  0
  7 12  1  0  0  0
 12 13  2  0  0  0
 12 14  1  0  0  0
 14 16  1  0  0  0
 16 17  1  0  0  0
 17 18  1  0  0  0
 16 22  1  0  0  0
 23 22  1  0  0  0
 23 24  1  0  0  0
 24 25  1  0  0  0
 25 26  1  0  0  0
 26 27  1  0  0  0
 27 28  2  0  0  0
 30 37  1  0  0  0
 37 38  1  0  0  0
 37 39  1  0  0  0
 37 40  1  0  0  0
  7  3  1  0  0  0
 27 23  1  0  0  0
 33 34  1  0  0  0
 14 15  1  0  0  0
 18 19  1  0  0  0
 18 20  1  0  0  0
 18 21  1  0  0  0
 26 29  1  0  0  0
M  CHG 1  18   1
M  END
> <minimizedAffinity>
-7.38272

> <CNNscore>
0.2200310081

> <CNNaffinity>
6.0101733208

> <CNN_VS>
1.3224245310

> <CNNaffinity_variance>
0.2458259165

$$$$



 40 41  0  0  0  0  0  0  0  0999 V2000
    9.4751   -0.8423   23.1675 C   0  0  0  0  0  0  0  0  0  0  0  0
    9.1586    0.5645   22.7543 O   0  0  0  0  0  0  0  0  0  0  0  0
    8.3844   -1.8705   23.2248 N   0  0  0  0  0  0  0  0  0  0  0  0
    8.5483   -3.3088   23.6177 C   0  0  0  0  0  0  0  0  0  0  0  0
    7.2036   -3.9682   23.5350 C   0  0  0  0  0  0  0  0  0  0  0  0
    6.2085   -2.9374   23.0909 C   0  0  0  0  0  0  0  0  0  0  0  0
    6.9383   -1.6410   22.8992 C   0  0  0  0  0  0  0  0  0  0  0  0
    6.9061   -5.4059   23.8423 C   0  0  0  0  0  0  0  0  0  0  0  0
    6.6087   -6.8436   24.1497 F   0  0  0  0  0  0  0  0  0  0  0  0
    5.5914   -5.2861   23.1303 F   0  0  0  0  0  0  0  0  0  0  0  0
    8.2209   -5.5257   24.5543 F   0  0  0  0  0  0  0  0  0  0  0  0
    6.3289   -0.3429   22.4592 C   0  0  0  0  0  0  0  0  0  0  0  0
    7.0281    0.5065   21.4396 O   0  0  0  0  0  0  0  0  0  0  0  0
    5.0202    0.1059   23.0388 N   0  0  0  0  0  0  0  0  0  0  0  0
    4.5612   -0.4515   23.7081 H   0  0  0  0  0  0  0  0  0  0  0  0
    4.4109    1.4041   22.5987 C   0  0  0  0  0  0  0  0  0  0  0  0
    4.8402    2.6900   23.2407 C   0  0  0  0  0  0  0  0  0  0  0  0
    5.0827    3.9056   22.3960 N   0  0  0  0  0  0  0  0  0  0  0  0
    4.9557    3.8578   21.3851 H   0  0  0  0  0  0  0  0  0  0  0  0
    5.3746    4.7800   22.8326 H   0  0  0  0  0  0  0  0  0  0  0  0
    5.2476    4.7322   21.8217 H   0  0  0  0  0  0  0  0  0  0  0  0
    3.3722    1.4162   21.5166 C   0  0  0  0  0  0  0  0  0  0  0  0
    3.7893    1.3802   20.0762 C   0  0  0  0  0  0  0  0  0  0  0  0
    4.7271    0.3883   19.4545 C   0  0  0  0  0  0  0  0  0  0  0  0
    4.8592    0.7248   17.9987 C   0  0  0  0  0  0  0  0  0  0  0  0
    4.0031    1.9248   17.7207 N   0  0  0  0  0  0  0  0  0  0  0  0
    3.3418    2.3298   19.0048 C   0  0  0  0  0  0  0  0  0  0  0  0
    2.3987    3.4821   19.1855 O   0  0  0  0  0  0  0  0  0  0  0  0
    3.8943    2.3685   16.8486 H   0  0  0  0  0  0  0  0  0  0  0  0
   10.8822   -1.2209   23.5233 C   0  0  0  0  0  0  0  0  0  0  0  0
   11.9876   -2.2814   25.6218 C   0  0  0  0  0  0  0  0  0  0  0  0
   12.5766   -0.9503   25.9842 O   0  0  0  0  0  0  0  0  0  0  0  0
   11.1404   -2.4167   24.3914 N   0  0  0  0  0  0  0  0  0  0  0  0
   10.7538   -3.2904   24.1536 H   0  0  0  0  0  0  0  0  0  0  0  0
   11.2341   -4.5819   26.5651 C   0  0  0  0  0  0  0  0  0  0  0  0
   12.2459   -3.4772   26.4899 O   0  0  0  0  0  0  0  0  0  0  0  0
   12.0311   -0.4038   23.0112 C   0  0  0  0  0  0  0  0  0  0  0  0
   11.5722    0.7600   23.8388 C   0  0  0  0  0  0  0  0  0  0  0  0
   12.4899   -1.5677   22.1836 C   0  0  0  0  0  0  0  0  0  0  0  0
   13.1800    0.4133   22.4990 C   0  0  0  0  0  0  0  0  0  0  0  0
 35 36  1  0  0  0
 36 31  1  0  0  0
 31 32  2  0  0  0
 31 33  1  0  0  0
 30 33  1  0  0  0
 30  1  1  0  0  0
  1  2  2  0  0  0
  1  3  1  0  0  0
  3  4  1  0  0  0
  4  5  1  0  0  0
  5  8  1  0  0  0
  8  9  1  0  0  0
  8 10  1  0  0  0
  8 11  1  0  0  0
  5  6  1  0  0  0
  6  7  1  0  0  0
  7 12  1  0  0  0
 12 13  2  0  0  0
 12 14  1  0  0  0
 14 16  1  0  0  0
 16 17  1  0  0  0
 17 18  1  0  0  0
 16 22  1  0  0  0
 23 22  1  0  0  0
 23 24  1  0  0  0
 24 25  1  0  0  0
 25 26  1  0  0  0
 26 27  1  0  0  0
 27 28  2  0  0  0
 30 37  1  0  0  0
 37 38  1  0  0  0
 37 39  1  0  0  0
 37 40  1  0  0  0
  7  3  1  0  0  0
 27 23  1  0  0  0
 33 34  1  0  0  0
 14 15  1  0  0  0
 18 19  1  0  0  0
 18 20  1  0  0  0
 18 21  1  0  0  0
 26 29  1  0  0  0
M  CHG 1  18   1
M  END
> <minimizedAffinity>
-7.46406

> <CNNscore>
0.2147664577

> <CNNaffinity>
6.0085763931

> <CNN_VS>
1.2904406786

> <CNNaffinity_variance>
0.0573497601

$$$$



 40 41  0  0  0  0  0  0  0  0999 V2000
    6.9270   -3.2246   23.8169 C   0  0  0  0  0  0  0  0  0  0  0  0
    6.0275   -2.3160   23.0324 O   0  0  0  0  0  0  0  0  0  0  0  0
    8.2583   -2.7289   24.2985 N   0  0  0  0  0  0  0  0  0  0  0  0
    9.2593   -3.5178   25.0894 C   0  0  0  0  0  0  0  0  0  0  0  0
   10.4421   -2.6339   25.3535 C   0  0  0  0  0  0  0  0  0  0  0  0
   10.1721   -1.2986   24.7257 C   0  0  0  0  0  0  0  0  0  0  0  0
    8.8225   -1.3574   24.0737 C   0  0  0  0  0  0  0  0  0  0  0  0
   11.6778   -3.0178   26.1121 C   0  0  0  0  0  0  0  0  0  0  0  0
   12.9136   -3.4017   26.8707 F   0  0  0  0  0  0  0  0  0  0  0  0
   12.0867   -1.5760   26.1757 F   0  0  0  0  0  0  0  0  0  0  0  0
   11.2690   -4.4596   26.0484 F   0  0  0  0  0  0  0  0  0  0  0  0
    8.1543   -0.2406   23.3278 C   0  0  0  0  0  0  0  0  0  0  0  0
    7.6057    0.9382   24.0758 O   0  0  0  0  0  0  0  0  0  0  0  0
    8.0347   -0.3025   21.8338 N   0  0  0  0  0  0  0  0  0  0  0  0
    8.3948   -1.0762   21.3428 H   0  0  0  0  0  0  0  0  0  0  0  0
    7.3665    0.8143   21.0880 C   0  0  0  0  0  0  0  0  0  0  0  0
    7.4335    2.2159   21.6182 C   0  0  0  0  0  0  0  0  0  0  0  0
    8.7645    2.8703   21.8422 N   0  0  0  0  0  0  0  0  0  0  0  0
    9.6241    2.3621   21.6339 H   0  0  0  0  0  0  0  0  0  0  0  0
    8.8101    3.8233   22.2027 H   0  0  0  0  0  0  0  0  0  0  0  0
    9.6696    3.3152   21.9944 H   0  0  0  0  0  0  0  0  0  0  0  0
    6.6313    0.5296   19.8119 C   0  0  0  0  0  0  0  0  0  0  0  0
    5.3501    1.2480   19.5081 C   0  0  0  0  0  0  0  0  0  0  0  0
    4.6136    2.1678   20.4364 C   0  0  0  0  0  0  0  0  0  0  0  0
    3.3887    2.6611   19.7247 C   0  0  0  0  0  0  0  0  0  0  0  0
    3.3683    2.0463   18.3566 N   0  0  0  0  0  0  0  0  0  0  0  0
    4.5805    1.1729   18.2228 C   0  0  0  0  0  0  0  0  0  0  0  0
    4.9570    0.3661   17.0156 O   0  0  0  0  0  0  0  0  0  0  0  0
    2.6801    2.1906   17.6676 H   0  0  0  0  0  0  0  0  0  0  0  0
    6.4952   -4.6287   24.1198 C   0  0  0  0  0  0  0  0  0  0  0  0
    4.5766   -5.4485   25.6681 C   0  0  0  0  0  0  0  0  0  0  0  0
    3.6685   -5.5669   24.4801 O   0  0  0  0  0  0  0  0  0  0  0  0
    5.9899   -4.9794   25.4879 N   0  0  0  0  0  0  0  0  0  0  0  0
    6.5859   -4.9017   26.2677 H   0  0  0  0  0  0  0  0  0  0  0  0
    4.1414   -7.2170   27.5210 C   0  0  0  0  0  0  0  0  0  0  0  0
    4.0713   -5.7992   27.0362 O   0  0  0  0  0  0  0  0  0  0  0  0
    6.5686   -5.6823   23.0546 C   0  0  0  0  0  0  0  0  0  0  0  0
    5.6654   -4.8625   22.1815 C   0  0  0  0  0  0  0  0  0  0  0  0
    7.4717   -6.5021   23.9276 C   0  0  0  0  0  0  0  0  0  0  0  0
    6.6420   -6.7358   21.9893 C   0  0  0  0  0  0  0  0  0  0  0  0
 35 36  1  0  0  0
 36 31  1  0  0  0
 31 32  2  0  0  0
 31 33  1  0  0  0
 30 33  1  0  0  0
 30  1  1  0  0  0
  1  2  2  0  0  0
  1  3  1  0  0  0
  3  4  1  0  0  0
  4  5  1  0  0  0
  5  8  1  0  0  0
  8  9  1  0  0  0
  8 10  1  0  0  0
  8 11  1  0  0  0
  5  6  1  0  0  0
  6  7  1  0  0  0
  7 12  1  0  0  0
 12 13  2  0  0  0
 12 14  1  0  0  0
 14 16  1  0  0  0
 16 17  1  0  0  0
 17 18  1  0  0  0
 16 22  1  0  0  0
 23 22  1  0  0  0
 23 24  1  0  0  0
 24 25  1  0  0  0
 25 26  1  0  0  0
 26 27  1  0  0  0
 27 28  2  0  0  0
 30 37  1  0  0  0
 37 38  1  0  0  0
 37 39  1  0  0  0
 37 40  1  0  0  0
  7  3  1  0  0  0
 27 23  1  0  0  0
 33 34  1  0  0  0
 14 15  1  0  0  0
 18 19  1  0  0  0
 18 20  1  0  0  0
 18 21  1  0  0  0
 26 29  1  0  0  0
M  CHG 1  18   1
M  END
> <minimizedAffinity>
-7.42664

> <CNNscore>
0.2032790184

> <CNNaffinity>
5.8597197533

> <CNN_VS>
1.1911580563

> <CNNaffinity_variance>
0.1438374519

$$$$
