


 37 42  0  0  0  0  0  0  0  0999 V2000
    7.5087   -3.4313   23.2985 C   0  0  0  0  0  0  0  0  0  0  0  0
    7.6593   -2.0954   22.6330 C   0  0  0  0  0  0  0  0  0  0  0  0
    6.5798   -1.8468   21.6216 C   0  0  0  0  0  0  0  0  0  0  0  0
    6.8155   -0.4953   21.0150 N   0  0  0  0  0  0  0  0  0  0  0  0
    8.0406    0.0912   21.6515 C   0  0  0  0  0  0  0  0  0  0  0  0
    8.6391    1.4315   21.3422 O   0  0  0  0  0  0  0  0  0  0  0  0
    8.5621   -0.8977   22.6515 C   0  0  0  0  0  0  0  0  0  0  0  0
    9.3719    0.3615   22.5593 C   0  0  0  0  0  0  0  0  0  0  0  0
   10.5835    0.5391   23.4257 N   0  0  0  0  0  0  0  0  0  0  0  0
   10.9852   -0.5425   24.3842 C   0  0  0  0  0  0  0  0  0  0  0  0
   12.1968   -0.3649   25.2505 O   0  0  0  0  0  0  0  0  0  0  0  0
   10.1754   -1.8018   24.4764 C   0  0  0  0  0  0  0  0  0  0  0  0
   10.5771   -2.8833   25.4349 C   0  0  0  0  0  0  0  0  0  0  0  0
    9.7672   -4.1425   25.5270 C   0  0  0  0  0  0  0  0  0  0  0  0
    8.5557   -4.3201   24.6607 C   0  0  0  0  0  0  0  0  0  0  0  0
    7.7458   -5.5794   24.7528 Cl  0  0  0  0  0  0  0  0  0  0  0  0
    8.1539   -3.2386   23.7022 C   0  0  0  0  0  0  0  0  0  0  0  0
    8.9638   -1.9794   23.6100 C   0  0  0  0  0  0  0  0  0  0  0  0
    5.9738    0.1554   19.9575 C   0  0  0  0  0  0  0  0  0  0  0  0
    6.3803    0.0679   18.5163 C   0  0  0  0  0  0  0  0  0  0  0  0
    5.5386    0.7186   17.4589 N   0  0  0  0  0  0  0  0  0  0  0  0
    4.2905    1.4568   17.8427 C   0  0  0  0  0  0  0  0  0  0  0  0
    3.8841    1.5443   19.2840 C   0  0  0  0  0  0  0  0  0  0  0  0
    2.6360    2.2826   19.6678 C   0  0  0  0  0  0  0  0  0  0  0  0
    2.2296    2.3701   21.1090 C   0  0  0  0  0  0  0  0  0  0  0  0
    3.0713    1.7194   22.1664 C   0  0  0  0  0  0  0  0  0  0  0  0
    4.3194    0.9811   21.7826 C   0  0  0  0  0  0  0  0  0  0  0  0
    4.7258    0.8936   20.3414 C   0  0  0  0  0  0  0  0  0  0  0  0
   11.3934    1.7984   23.3335 C   0  0  0  0  0  0  0  0  0  0  0  0
   11.0386    2.8457   22.3200 C   0  0  0  0  0  0  0  0  0  0  0  0
   10.3016    4.0811   22.7447 N   0  0  0  0  0  0  0  0  0  0  0  0
    8.8605    3.9922   23.1514 C   0  0  0  0  0  0  0  0  0  0  0  0
    8.1234    5.2277   23.5761 C   0  0  0  0  0  0  0  0  0  0  0  0
    8.8275    6.5520   23.5942 O   0  0  0  0  0  0  0  0  0  0  0  0
   10.2685    6.6410   23.1876 C   0  0  0  0  0  0  0  0  0  0  0  0
   11.0056    5.4055   22.7629 C   0  0  0  0  0  0  0  0  0  0  0  0
    9.8004    4.9213   23.0336 H   0  0  0  0  0  0  0  0  0  0  0  0
  2  1  1  0  0  0
  2  3  1  0  0  0
  3  4  1  0  0  0
  4 19  1  0  0  0
 19 20  2  0  0  0
 20 21  1  0  0  0
 21 22  2  0  0  0
 22 23  1  0  0  0
 23 24  2  0  0  0
 24 25  1  0  0  0
 25 26  2  0  0  0
 26 27  1  0  0  0
 27 28  2  0  0  0
  4  5  1  0  0  0
  5  6  2  0  0  0
  5  7  1  0  0  0
  7  8  1  0  0  0
  8  9  1  0  0  0
  9 29  1  0  0  0
 29 30  1  0  0  0
 30 31  1  0  0  0
 31 32  1  0  0  0
 32 33  1  0  0  0
 33 34  1  0  0  0
 34 35  1  0  0  0
 35 36  1  0  0  0
  9 10  1  0  0  0
 10 11  2  0  0  0
 10 12  1  0  0  0
 12 13  2  0  0  0
 13 14  1  0  0  0
 14 15  2  0  0  0
 15 16  1  0  0  0
 15 17  1  0  0  0
 17 18  2  0  0  0
  7  2  1  0  0  0
 36 31  1  0  0  0
 18 12  1  0  0  0
 28 19  1  0  0  0
 18  7  1  0  0  0
 28 23  1  0  0  0
 31 37  1  0  0  0
M  CHG 1  31   1
M  END
> <minimizedAffinity>
-9.46031

> <CNNscore>
0.5529479980

> <CNNaffinity>
6.8502349854

> <CNN_VS>
3.7878236771

> <CNNaffinity_variance>
0.0710217133

$$$$



 37 42  0  0  0  0  0  0  0  0999 V2000
    9.4193   -0.9455   23.5519 C   0  0  0  0  0  0  0  0  0  0  0  0
    8.2098   -1.3210   22.7481 C   0  0  0  0  0  0  0  0  0  0  0  0
    7.8283   -0.2477   21.7721 C   0  0  0  0  0  0  0  0  0  0  0  0
    6.6164   -0.7136   21.0210 N   0  0  0  0  0  0  0  0  0  0  0  0
    6.2489   -2.0748   21.5327 C   0  0  0  0  0  0  0  0  0  0  0  0
    5.0985   -2.9134   21.0601 O   0  0  0  0  0  0  0  0  0  0  0  0
    7.2336   -2.4503   22.6001 C   0  0  0  0  0  0  0  0  0  0  0  0
    6.1877   -3.4937   22.3407 C   0  0  0  0  0  0  0  0  0  0  0  0
    6.1950   -4.7736   23.1229 N   0  0  0  0  0  0  0  0  0  0  0  0
    7.2482   -5.0101   24.1644 C   0  0  0  0  0  0  0  0  0  0  0  0
    7.2555   -6.2901   24.9465 O   0  0  0  0  0  0  0  0  0  0  0  0
    8.2941   -3.9667   24.4239 C   0  0  0  0  0  0  0  0  0  0  0  0
    9.3473   -4.2032   25.4654 C   0  0  0  0  0  0  0  0  0  0  0  0
   10.3932   -3.1597   25.7248 C   0  0  0  0  0  0  0  0  0  0  0  0
   10.3859   -1.8798   24.9427 C   0  0  0  0  0  0  0  0  0  0  0  0
   11.4319   -0.8363   25.2021 Cl  0  0  0  0  0  0  0  0  0  0  0  0
    9.3327   -1.6433   23.9011 C   0  0  0  0  0  0  0  0  0  0  0  0
    8.2868   -2.6867   23.6417 C   0  0  0  0  0  0  0  0  0  0  0  0
    5.8981    0.0481   19.9467 C   0  0  0  0  0  0  0  0  0  0  0  0
    6.3674   -0.0381   18.5247 C   0  0  0  0  0  0  0  0  0  0  0  0
    5.6491    0.7235   17.4505 N   0  0  0  0  0  0  0  0  0  0  0  0
    4.4616    1.5713   17.7983 C   0  0  0  0  0  0  0  0  0  0  0  0
    3.9923    1.6574   19.2205 C   0  0  0  0  0  0  0  0  0  0  0  0
    2.8047    2.5052   19.5683 C   0  0  0  0  0  0  0  0  0  0  0  0
    2.3355    2.5913   20.9904 C   0  0  0  0  0  0  0  0  0  0  0  0
    3.0538    1.8297   22.0646 C   0  0  0  0  0  0  0  0  0  0  0  0
    4.2413    0.9819   21.7167 C   0  0  0  0  0  0  0  0  0  0  0  0
    4.7106    0.8958   20.2947 C   0  0  0  0  0  0  0  0  0  0  0  0
    5.1491   -5.8171   22.8634 C   0  0  0  0  0  0  0  0  0  0  0  0
    3.9150   -5.8699   23.7144 C   0  0  0  0  0  0  0  0  0  0  0  0
    4.0347   -5.8722   25.2096 N   0  0  0  0  0  0  0  0  0  0  0  0
    4.1340   -7.1718   25.9521 C   0  0  0  0  0  0  0  0  0  0  0  0
    4.2536   -7.1742   27.4473 C   0  0  0  0  0  0  0  0  0  0  0  0
    4.2741   -5.8769   28.2001 O   0  0  0  0  0  0  0  0  0  0  0  0
    4.1748   -4.5773   27.4577 C   0  0  0  0  0  0  0  0  0  0  0  0
    4.0551   -4.5749   25.9624 C   0  0  0  0  0  0  0  0  0  0  0  0
    4.1161   -5.8738   26.2264 H   0  0  0  0  0  0  0  0  0  0  0  0
  2  1  1  0  0  0
  2  3  1  0  0  0
  3  4  1  0  0  0
  4 19  1  0  0  0
 19 20  2  0  0  0
 20 21  1  0  0  0
 21 22  2  0  0  0
 22 23  1  0  0  0
 23 24  2  0  0  0
 24 25  1  0  0  0
 25 26  2  0  0  0
 26 27  1  0  0  0
 27 28  2  0  0  0
  4  5  1  0  0  0
  5  6  2  0  0  0
  5  7  1  0  0  0
  7  8  1  0  0  0
  8  9  1  0  0  0
  9 29  1  0  0  0
 29 30  1  0  0  0
 30 31  1  0  0  0
 31 32  1  0  0  0
 32 33  1  0  0  0
 33 34  1  0  0  0
 34 35  1  0  0  0
 35 36  1  0  0  0
  9 10  1  0  0  0
 10 11  2  0  0  0
 10 12  1  0  0  0
 12 13  2  0  0  0
 13 14  1  0  0  0
 14 15  2  0  0  0
 15 16  1  0  0  0
 15 17  1  0  0  0
 17 18  2  0  0  0
  7  2  1  0  0  0
 36 31  1  0  0  0
 18 12  1  0  0  0
 28 19  1  0  0  0
 18  7  1  0  0  0
 28 23  1  0  0  0
 31 37  1  0  0  0
M  CHG 1  31   1
M  END
> <minimizedAffinity>
-7.89731

> <CNNscore>
0.5315707922

> <CNNaffinity>
6.5061721802

> <CNN_VS>
3.4584910870

> <CNNaffinity_variance>
0.0299555007

$$$$



 37 42  0  0  0  0  0  0  0  0999 V2000
    6.9556   -0.5035   20.0311 C   0  0  0  0  0  0  0  0  0  0  0  0
    7.8393    0.0123   21.1281 C   0  0  0  0  0  0  0  0  0  0  0  0
    8.9163   -0.9673   21.4894 C   0  0  0  0  0  0  0  0  0  0  0  0
    9.7416   -0.3646   22.5874 N   0  0  0  0  0  0  0  0  0  0  0  0
    9.1746    0.9874   22.9047 C   0  0  0  0  0  0  0  0  0  0  0  0
    9.6925    1.9393   23.9419 O   0  0  0  0  0  0  0  0  0  0  0  0
    7.9989    1.2203   22.0028 C   0  0  0  0  0  0  0  0  0  0  0  0
    8.2815    2.3551   22.9422 C   0  0  0  0  0  0  0  0  0  0  0  0
    7.4172    3.5808   22.9191 N   0  0  0  0  0  0  0  0  0  0  0  0
    6.2703    3.6718   21.9567 C   0  0  0  0  0  0  0  0  0  0  0  0
    5.4059    4.8975   21.9336 O   0  0  0  0  0  0  0  0  0  0  0  0
    5.9876    2.5369   21.0173 C   0  0  0  0  0  0  0  0  0  0  0  0
    4.8407    2.6279   20.0548 C   0  0  0  0  0  0  0  0  0  0  0  0
    4.5582    1.4931   19.1155 C   0  0  0  0  0  0  0  0  0  0  0  0
    5.4225    0.2674   19.1386 C   0  0  0  0  0  0  0  0  0  0  0  0
    5.1399   -0.8674   18.1992 Cl  0  0  0  0  0  0  0  0  0  0  0  0
    6.5694    0.1764   20.1010 C   0  0  0  0  0  0  0  0  0  0  0  0
    6.8520    1.3112   21.0404 C   0  0  0  0  0  0  0  0  0  0  0  0
   10.9260   -1.0020   23.2515 C   0  0  0  0  0  0  0  0  0  0  0  0
   12.3093   -0.7303   22.7392 C   0  0  0  0  0  0  0  0  0  0  0  0
   13.4937   -1.3677   23.4033 N   0  0  0  0  0  0  0  0  0  0  0  0
   13.2946   -2.2767   24.5797 C   0  0  0  0  0  0  0  0  0  0  0  0
   11.9113   -2.5484   25.0920 C   0  0  0  0  0  0  0  0  0  0  0  0
   11.7123   -3.4575   26.2685 C   0  0  0  0  0  0  0  0  0  0  0  0
   10.3288   -3.7291   26.7808 C   0  0  0  0  0  0  0  0  0  0  0  0
    9.1446   -3.0917   26.1167 C   0  0  0  0  0  0  0  0  0  0  0  0
    9.3436   -2.1827   24.9402 C   0  0  0  0  0  0  0  0  0  0  0  0
   10.7269   -1.9110   24.4279 C   0  0  0  0  0  0  0  0  0  0  0  0
    7.6998    4.7156   23.8585 C   0  0  0  0  0  0  0  0  0  0  0  0
    8.2710    5.9994   23.3335 C   0  0  0  0  0  0  0  0  0  0  0  0
    9.7038    6.0582   22.8937 N   0  0  0  0  0  0  0  0  0  0  0  0
   10.5193    4.8011   22.8242 C   0  0  0  0  0  0  0  0  0  0  0  0
   11.9521    4.8600   22.3844 C   0  0  0  0  0  0  0  0  0  0  0  0
   12.5696    6.1760   22.0142 O   0  0  0  0  0  0  0  0  0  0  0  0
   11.7542    7.4330   22.0837 C   0  0  0  0  0  0  0  0  0  0  0  0
   10.3212    7.3742   22.5235 C   0  0  0  0  0  0  0  0  0  0  0  0
   10.6782    6.0983   22.5947 H   0  0  0  0  0  0  0  0  0  0  0  0
  2  1  1  0  0  0
  2  3  1  0  0  0
  3  4  1  0  0  0
  4 19  1  0  0  0
 19 20  2  0  0  0
 20 21  1  0  0  0
 21 22  2  0  0  0
 22 23  1  0  0  0
 23 24  2  0  0  0
 24 25  1  0  0  0
 25 26  2  0  0  0
 26 27  1  0  0  0
 27 28  2  0  0  0
  4  5  1  0  0  0
  5  6  2  0  0  0
  5  7  1  0  0  0
  7  8  1  0  0  0
  8  9  1  0  0  0
  9 29  1  0  0  0
 29 30  1  0  0  0
 30 31  1  0  0  0
 31 32  1  0  0  0
 32 33  1  0  0  0
 33 34  1  0  0  0
 34 35  1  0  0  0
 35 36  1  0  0  0
  9 10  1  0  0  0
 10 11  2  0  0  0
 10 12  1  0  0  0
 12 13  2  0  0  0
 13 14  1  0  0  0
 14 15  2  0  0  0
 15 16  1  0  0  0
 15 17  1  0  0  0
 17 18  2  0  0  0
  7  2  1  0  0  0
 36 31  1  0  0  0
 18 12  1  0  0  0
 28 19  1  0  0  0
 18  7  1  0  0  0
 28 23  1  0  0  0
 31 37  1  0  0  0
M  CHG 1  31   1
M  END
> <minimizedAffinity>
-8.77842

> <CNNscore>
0.5240631104

> <CNNaffinity>
6.9322471619

> <CNN_VS>
3.6329350471

> <CNNaffinity_variance>
0.1901514828

$$$$



 37 42  0  0  0  0  0  0  0  0999 V2000
   10.5360   -0.3556   22.8243 C   0  0  0  0  0  0  0  0  0  0  0  0
    9.0682   -0.5734   22.6043 C   0  0  0  0  0  0  0  0  0  0  0  0
    8.5974    0.0321   21.3152 C   0  0  0  0  0  0  0  0  0  0  0  0
    7.1273   -0.2368   21.1865 N   0  0  0  0  0  0  0  0  0  0  0  0
    6.6896   -1.0085   22.3960 C   0  0  0  0  0  0  0  0  0  0  0  0
    5.2969   -1.4879   22.6795 O   0  0  0  0  0  0  0  0  0  0  0  0
    7.8892   -1.2165   23.2723 C   0  0  0  0  0  0  0  0  0  0  0  0
    6.6248   -1.8114   23.8176 C   0  0  0  0  0  0  0  0  0  0  0  0
    6.6422   -2.5353   25.1312 N   0  0  0  0  0  0  0  0  0  0  0  0
    7.9240   -2.6645   25.8995 C   0  0  0  0  0  0  0  0  0  0  0  0
    7.9415   -3.3884   27.2131 O   0  0  0  0  0  0  0  0  0  0  0  0
    9.1885   -2.0696   25.3541 C   0  0  0  0  0  0  0  0  0  0  0  0
   10.4703   -2.1987   26.1224 C   0  0  0  0  0  0  0  0  0  0  0  0
   11.7347   -1.6038   25.5771 C   0  0  0  0  0  0  0  0  0  0  0  0
   11.7172   -0.8798   24.2635 C   0  0  0  0  0  0  0  0  0  0  0  0
   12.9817   -0.2849   23.7181 Cl  0  0  0  0  0  0  0  0  0  0  0  0
   10.4354   -0.7507   23.4952 C   0  0  0  0  0  0  0  0  0  0  0  0
    9.1711   -1.3456   24.0405 C   0  0  0  0  0  0  0  0  0  0  0  0
    6.2491    0.1908   20.0481 C   0  0  0  0  0  0  0  0  0  0  0  0
    6.4205   -0.4311   18.6940 C   0  0  0  0  0  0  0  0  0  0  0  0
    5.5423   -0.0034   17.5556 N   0  0  0  0  0  0  0  0  0  0  0  0
    4.4927    1.0461   17.7715 C   0  0  0  0  0  0  0  0  0  0  0  0
    4.3212    1.6681   19.1257 C   0  0  0  0  0  0  0  0  0  0  0  0
    3.2715    2.7177   19.3415 C   0  0  0  0  0  0  0  0  0  0  0  0
    3.1001    3.3395   20.6958 C   0  0  0  0  0  0  0  0  0  0  0  0
    3.9783    2.9119   21.8340 C   0  0  0  0  0  0  0  0  0  0  0  0
    5.0280    1.8623   21.6182 C   0  0  0  0  0  0  0  0  0  0  0  0
    5.1994    1.2404   20.2641 C   0  0  0  0  0  0  0  0  0  0  0  0
    5.3778   -3.1302   25.6765 C   0  0  0  0  0  0  0  0  0  0  0  0
    5.0786   -4.5841   25.4600 C   0  0  0  0  0  0  0  0  0  0  0  0
    5.6129   -5.2872   24.2475 N   0  0  0  0  0  0  0  0  0  0  0  0
    5.0341   -4.9946   22.8949 C   0  0  0  0  0  0  0  0  0  0  0  0
    5.5684   -5.6977   21.6825 C   0  0  0  0  0  0  0  0  0  0  0  0
    6.6815   -6.6934   21.8225 O   0  0  0  0  0  0  0  0  0  0  0  0
    7.2603   -6.9860   23.1750 C   0  0  0  0  0  0  0  0  0  0  0  0
    6.7260   -6.2829   24.3876 C   0  0  0  0  0  0  0  0  0  0  0  0
    5.9762   -5.7653   23.4230 H   0  0  0  0  0  0  0  0  0  0  0  0
  2  1  1  0  0  0
  2  3  1  0  0  0
  3  4  1  0  0  0
  4 19  1  0  0  0
 19 20  2  0  0  0
 20 21  1  0  0  0
 21 22  2  0  0  0
 22 23  1  0  0  0
 23 24  2  0  0  0
 24 25  1  0  0  0
 25 26  2  0  0  0
 26 27  1  0  0  0
 27 28  2  0  0  0
  4  5  1  0  0  0
  5  6  2  0  0  0
  5  7  1  0  0  0
  7  8  1  0  0  0
  8  9  1  0  0  0
  9 29  1  0  0  0
 29 30  1  0  0  0
 30 31  1  0  0  0
 31 32  1  0  0  0
 32 33  1  0  0  0
 33 34  1  0  0  0
 34 35  1  0  0  0
 35 36  1  0  0  0
  9 10  1  0  0  0
 10 11  2  0  0  0
 10 12  1  0  0  0
 12 13  2  0  0  0
 13 14  1  0  0  0
 14 15  2  0  0  0
 15 16  1  0  0  0
 15 17  1  0  0  0
 17 18  2  0  0  0
  7  2  1  0  0  0
 36 31  1  0  0  0
 18 12  1  0  0  0
 28 19  1  0  0  0
 18  7  1  0  0  0
 28 23  1  0  0  0
 31 37  1  0  0  0
M  CHG 1  31   1
M  END
> <minimizedAffinity>
-9.45043

> <CNNscore>
0.4446422458

> <CNNaffinity>
6.6155099869

> <CNN_VS>
2.9415352345

> <CNNaffinity_variance>
0.1766477376

$$$$



 37 42  0  0  0  0  0  0  0  0999 V2000
   10.7696   -1.2893   22.6263 C   0  0  0  0  0  0  0  0  0  0  0  0
    9.2723   -1.2145   22.5731 C   0  0  0  0  0  0  0  0  0  0  0  0
    8.7853   -0.6113   21.2889 C   0  0  0  0  0  0  0  0  0  0  0  0
    7.2862   -0.5798   21.3308 N   0  0  0  0  0  0  0  0  0  0  0  0
    6.8468   -1.1636   22.6409 C   0  0  0  0  0  0  0  0  0  0  0  0
    5.4288   -1.3265   23.1021 O   0  0  0  0  0  0  0  0  0  0  0  0
    8.0743   -1.5558   23.4086 C   0  0  0  0  0  0  0  0  0  0  0  0
    6.7886   -1.8406   24.1268 C   0  0  0  0  0  0  0  0  0  0  0  0
    6.8137   -2.4646   25.4906 N   0  0  0  0  0  0  0  0  0  0  0  0
    8.1244   -2.8038   26.1362 C   0  0  0  0  0  0  0  0  0  0  0  0
    8.1494   -3.4278   27.5000 O   0  0  0  0  0  0  0  0  0  0  0  0
    9.4102   -2.5191   25.4180 C   0  0  0  0  0  0  0  0  0  0  0  0
   10.7209   -2.8583   26.0636 C   0  0  0  0  0  0  0  0  0  0  0  0
   12.0066   -2.5735   25.3454 C   0  0  0  0  0  0  0  0  0  0  0  0
   11.9815   -1.9495   23.9816 C   0  0  0  0  0  0  0  0  0  0  0  0
   13.2673   -1.6647   23.2634 Cl  0  0  0  0  0  0  0  0  0  0  0  0
   10.6708   -1.6103   23.3360 C   0  0  0  0  0  0  0  0  0  0  0  0
    9.3851   -1.8951   24.0542 C   0  0  0  0  0  0  0  0  0  0  0  0
    6.3848   -0.0566   20.2521 C   0  0  0  0  0  0  0  0  0  0  0  0
    6.3656   -0.7163   18.9052 C   0  0  0  0  0  0  0  0  0  0  0  0
    5.4642   -0.1930   17.8265 N   0  0  0  0  0  0  0  0  0  0  0  0
    4.5820    0.9901   18.0948 C   0  0  0  0  0  0  0  0  0  0  0  0
    4.6011    1.6498   19.4419 C   0  0  0  0  0  0  0  0  0  0  0  0
    3.7188    2.8329   19.7101 C   0  0  0  0  0  0  0  0  0  0  0  0
    3.7380    3.4926   21.0572 C   0  0  0  0  0  0  0  0  0  0  0  0
    4.6395    2.9693   22.1358 C   0  0  0  0  0  0  0  0  0  0  0  0
    5.5217    1.7862   21.8675 C   0  0  0  0  0  0  0  0  0  0  0  0
    5.5025    1.1265   20.5205 C   0  0  0  0  0  0  0  0  0  0  0  0
    5.5279   -2.7494   26.2088 C   0  0  0  0  0  0  0  0  0  0  0  0
    5.4212   -3.9430   27.1109 C   0  0  0  0  0  0  0  0  0  0  0  0
    4.9290   -3.7778   28.5182 N   0  0  0  0  0  0  0  0  0  0  0  0
    5.5971   -2.7975   29.4362 C   0  0  0  0  0  0  0  0  0  0  0  0
    5.1050   -2.6323   30.8435 C   0  0  0  0  0  0  0  0  0  0  0  0
    3.9448   -3.4475   31.3329 O   0  0  0  0  0  0  0  0  0  0  0  0
    3.2768   -4.4278   30.4150 C   0  0  0  0  0  0  0  0  0  0  0  0
    3.7689   -4.5930   29.0076 C   0  0  0  0  0  0  0  0  0  0  0  0
    4.5944   -3.6655   29.4752 H   0  0  0  0  0  0  0  0  0  0  0  0
  2  1  1  0  0  0
  2  3  1  0  0  0
  3  4  1  0  0  0
  4 19  1  0  0  0
 19 20  2  0  0  0
 20 21  1  0  0  0
 21 22  2  0  0  0
 22 23  1  0  0  0
 23 24  2  0  0  0
 24 25  1  0  0  0
 25 26  2  0  0  0
 26 27  1  0  0  0
 27 28  2  0  0  0
  4  5  1  0  0  0
  5  6  2  0  0  0
  5  7  1  0  0  0
  7  8  1  0  0  0
  8  9  1  0  0  0
  9 29  1  0  0  0
 29 30  1  0  0  0
 30 31  1  0  0  0
 31 32  1  0  0  0
 32 33  1  0  0  0
 33 34  1  0  0  0
 34 35  1  0  0  0
 35 36  1  0  0  0
  9 10  1  0  0  0
 10 11  2  0  0  0
 10 12  1  0  0  0
 12 13  2  0  0  0
 13 14  1  0  0  0
 14 15  2  0  0  0
 15 16  1  0  0  0
 15 17  1  0  0  0
 17 18  2  0  0  0
  7  2  1  0  0  0
 36 31  1  0  0  0
 18 12  1  0  0  0
 28 19  1  0  0  0
 18  7  1  0  0  0
 28 23  1  0  0  0
 31 37  1  0  0  0
M  CHG 1  31   1
M  END
> <minimizedAffinity>
-8.51865

> <CNNscore>
0.4347496033

> <CNNaffinity>
6.4051375389

> <CNN_VS>
2.7846310139

> <CNNaffinity_variance>
0.0600672737

$$$$



 37 42  0  0  0  0  0  0  0  0999 V2000
   10.8237   -2.1353   25.3746 C   0  0  0  0  0  0  0  0  0  0  0  0
    9.3422   -2.0923   25.1432 C   0  0  0  0  0  0  0  0  0  0  0  0
    8.6208   -3.1512   25.9231 C   0  0  0  0  0  0  0  0  0  0  0  0
    7.1555   -3.0274   25.6271 N   0  0  0  0  0  0  0  0  0  0  0  0
    6.9714   -1.8919   24.6644 C   0  0  0  0  0  0  0  0  0  0  0  0
    5.6651   -1.4177   24.0998 O   0  0  0  0  0  0  0  0  0  0  0  0
    8.3229   -1.3140   24.3653 C   0  0  0  0  0  0  0  0  0  0  0  0
    7.1952   -0.6299   23.6509 C   0  0  0  0  0  0  0  0  0  0  0  0
    7.4777    0.5237   22.7348 N   0  0  0  0  0  0  0  0  0  0  0  0
    8.8879    0.9933   22.5330 C   0  0  0  0  0  0  0  0  0  0  0  0
    9.1705    2.1470   21.6169 O   0  0  0  0  0  0  0  0  0  0  0  0
   10.0157    0.3092   23.2474 C   0  0  0  0  0  0  0  0  0  0  0  0
   11.4259    0.7788   23.0457 C   0  0  0  0  0  0  0  0  0  0  0  0
   12.5536    0.0948   23.7600 C   0  0  0  0  0  0  0  0  0  0  0  0
   12.2711   -1.0589   24.6761 C   0  0  0  0  0  0  0  0  0  0  0  0
   13.3989   -1.7429   25.3905 Cl  0  0  0  0  0  0  0  0  0  0  0  0
   10.8609   -1.5285   24.8779 C   0  0  0  0  0  0  0  0  0  0  0  0
    9.7332   -0.8444   24.1636 C   0  0  0  0  0  0  0  0  0  0  0  0
    6.0656   -3.8879   26.1943 C   0  0  0  0  0  0  0  0  0  0  0  0
    5.4835   -4.9995   25.3726 C   0  0  0  0  0  0  0  0  0  0  0  0
    4.3937   -5.8600   25.9398 N   0  0  0  0  0  0  0  0  0  0  0  0
    3.8859   -5.6088   27.3287 C   0  0  0  0  0  0  0  0  0  0  0  0
    4.4681   -4.4971   28.1505 C   0  0  0  0  0  0  0  0  0  0  0  0
    3.9603   -4.2459   29.5394 C   0  0  0  0  0  0  0  0  0  0  0  0
    4.5425   -3.1342   30.3611 C   0  0  0  0  0  0  0  0  0  0  0  0
    5.6323   -2.2737   29.7938 C   0  0  0  0  0  0  0  0  0  0  0  0
    6.1400   -2.5249   28.4049 C   0  0  0  0  0  0  0  0  0  0  0  0
    5.5579   -3.6366   27.5833 C   0  0  0  0  0  0  0  0  0  0  0  0
    6.3500    1.2078   22.0204 C   0  0  0  0  0  0  0  0  0  0  0  0
    5.6204    2.3397   22.6812 C   0  0  0  0  0  0  0  0  0  0  0  0
    6.1049    3.7483   22.5056 N   0  0  0  0  0  0  0  0  0  0  0  0
    7.2000    4.2796   23.3823 C   0  0  0  0  0  0  0  0  0  0  0  0
    7.6845    5.6882   23.2067 C   0  0  0  0  0  0  0  0  0  0  0  0
    7.0740    6.5657   22.1544 O   0  0  0  0  0  0  0  0  0  0  0  0
    5.9789    6.0345   21.2777 C   0  0  0  0  0  0  0  0  0  0  0  0
    5.4944    4.6258   21.4533 C   0  0  0  0  0  0  0  0  0  0  0  0
    6.4344    4.7062   22.3861 H   0  0  0  0  0  0  0  0  0  0  0  0
  2  1  1  0  0  0
  2  3  1  0  0  0
  3  4  1  0  0  0
  4 19  1  0  0  0
 19 20  2  0  0  0
 20 21  1  0  0  0
 21 22  2  0  0  0
 22 23  1  0  0  0
 23 24  2  0  0  0
 24 25  1  0  0  0
 25 26  2  0  0  0
 26 27  1  0  0  0
 27 28  2  0  0  0
  4  5  1  0  0  0
  5  6  2  0  0  0
  5  7  1  0  0  0
  7  8  1  0  0  0
  8  9  1  0  0  0
  9 29  1  0  0  0
 29 30  1  0  0  0
 30 31  1  0  0  0
 31 32  1  0  0  0
 32 33  1  0  0  0
 33 34  1  0  0  0
 34 35  1  0  0  0
 35 36  1  0  0  0
  9 10  1  0  0  0
 10 11  2  0  0  0
 10 12  1  0  0  0
 12 13  2  0  0  0
 13 14  1  0  0  0
 14 15  2  0  0  0
 15 16  1  0  0  0
 15 17  1  0  0  0
 17 18  2  0  0  0
  7  2  1  0  0  0
 36 31  1  0  0  0
 18 12  1  0  0  0
 28 19  1  0  0  0
 18  7  1  0  0  0
 28 23  1  0  0  0
 31 37  1  0  0  0
M  CHG 1  31   1
M  END
> <minimizedAffinity>
-7.89618

> <CNNscore>
0.4229500890

> <CNNaffinity>
6.5057601929

> <CNN_VS>
2.7516119480

> <CNNaffinity_variance>
0.1788921654

$$$$



 37 42  0  0  0  0  0  0  0  0999 V2000
    6.4319   -1.5573   20.8622 C   0  0  0  0  0  0  0  0  0  0  0  0
    7.0921   -1.0399   22.1059 C   0  0  0  0  0  0  0  0  0  0  0  0
    7.7392   -2.1380   22.8968 C   0  0  0  0  0  0  0  0  0  0  0  0
    8.3676   -1.5248   24.1130 N   0  0  0  0  0  0  0  0  0  0  0  0
    8.1089   -0.0478   24.0737 C   0  0  0  0  0  0  0  0  0  0  0  0
    8.5594    0.9538   25.0954 O   0  0  0  0  0  0  0  0  0  0  0  0
    7.3205    0.2519   22.8332 C   0  0  0  0  0  0  0  0  0  0  0  0
    7.6266    1.4598   23.6682 C   0  0  0  0  0  0  0  0  0  0  0  0
    7.1504    2.8136   23.2317 N   0  0  0  0  0  0  0  0  0  0  0  0
    6.3681    2.9594   21.9602 C   0  0  0  0  0  0  0  0  0  0  0  0
    5.8918    4.3132   21.5237 O   0  0  0  0  0  0  0  0  0  0  0  0
    6.0619    1.7515   21.1252 C   0  0  0  0  0  0  0  0  0  0  0  0
    5.2796    1.8973   19.8538 C   0  0  0  0  0  0  0  0  0  0  0  0
    4.9735    0.6894   19.0188 C   0  0  0  0  0  0  0  0  0  0  0  0
    5.4497   -0.6644   19.4553 C   0  0  0  0  0  0  0  0  0  0  0  0
    5.1436   -1.8723   18.6203 Cl  0  0  0  0  0  0  0  0  0  0  0  0
    6.2321   -0.8102   20.7267 C   0  0  0  0  0  0  0  0  0  0  0  0
    6.5382    0.3977   21.5617 C   0  0  0  0  0  0  0  0  0  0  0  0
    9.1223   -2.2595   25.1810 C   0  0  0  0  0  0  0  0  0  0  0  0
    8.3801   -3.0756   26.1973 C   0  0  0  0  0  0  0  0  0  0  0  0
    9.1348   -3.8103   27.2653 N   0  0  0  0  0  0  0  0  0  0  0  0
   10.6317   -3.7289   27.3169 C   0  0  0  0  0  0  0  0  0  0  0  0
   11.3739   -2.9128   26.3005 C   0  0  0  0  0  0  0  0  0  0  0  0
   12.8709   -2.8314   26.3521 C   0  0  0  0  0  0  0  0  0  0  0  0
   13.6130   -2.0153   25.3356 C   0  0  0  0  0  0  0  0  0  0  0  0
   12.8583   -1.2806   24.2677 C   0  0  0  0  0  0  0  0  0  0  0  0
   11.3614   -1.3620   24.2161 C   0  0  0  0  0  0  0  0  0  0  0  0
   10.6192   -2.1781   25.2325 C   0  0  0  0  0  0  0  0  0  0  0  0
    7.4566    4.0215   24.0667 C   0  0  0  0  0  0  0  0  0  0  0  0
    8.1493    5.2018   23.4527 C   0  0  0  0  0  0  0  0  0  0  0  0
    9.5725    5.0812   22.9946 N   0  0  0  0  0  0  0  0  0  0  0  0
   10.3412    6.3086   22.6036 C   0  0  0  0  0  0  0  0  0  0  0  0
   11.7644    6.1880   22.1455 C   0  0  0  0  0  0  0  0  0  0  0  0
   12.4190    4.8400   22.0784 O   0  0  0  0  0  0  0  0  0  0  0  0
   11.6505    3.6127   22.4693 C   0  0  0  0  0  0  0  0  0  0  0  0
   10.2272    3.7332   22.9274 C   0  0  0  0  0  0  0  0  0  0  0  0
   10.5403    4.9992   22.6831 H   0  0  0  0  0  0  0  0  0  0  0  0
  2  1  1  0  0  0
  2  3  1  0  0  0
  3  4  1  0  0  0
  4 19  1  0  0  0
 19 20  2  0  0  0
 20 21  1  0  0  0
 21 22  2  0  0  0
 22 23  1  0  0  0
 23 24  2  0  0  0
 24 25  1  0  0  0
 25 26  2  0  0  0
 26 27  1  0  0  0
 27 28  2  0  0  0
  4  5  1  0  0  0
  5  6  2  0  0  0
  5  7  1  0  0  0
  7  8  1  0  0  0
  8  9  1  0  0  0
  9 29  1  0  0  0
 29 30  1  0  0  0
 30 31  1  0  0  0
 31 32  1  0  0  0
 32 33  1  0  0  0
 33 34  1  0  0  0
 34 35  1  0  0  0
 35 36  1  0  0  0
  9 10  1  0  0  0
 10 11  2  0  0  0
 10 12  1  0  0  0
 12 13  2  0  0  0
 13 14  1  0  0  0
 14 15  2  0  0  0
 15 16  1  0  0  0
 15 17  1  0  0  0
 17 18  2  0  0  0
  7  2  1  0  0  0
 36 31  1  0  0  0
 18 12  1  0  0  0
 28 19  1  0  0  0
 18  7  1  0  0  0
 28 23  1  0  0  0
 31 37  1  0  0  0
M  CHG 1  31   1
M  END
> <minimizedAffinity>
-8.08972

> <CNNscore>
0.3726528287

> <CNNaffinity>
6.7005858421

> <CNN_VS>
2.4969923496

> <CNNaffinity_variance>
0.0752401203

$$$$



 37 42  0  0  0  0  0  0  0  0999 V2000
   10.5706   -1.2605   22.5343 C   0  0  0  0  0  0  0  0  0  0  0  0
    9.0761   -1.1560   22.4588 C   0  0  0  0  0  0  0  0  0  0  0  0
    8.6190   -0.5687   21.1565 C   0  0  0  0  0  0  0  0  0  0  0  0
    7.1204   -0.5058   21.1770 N   0  0  0  0  0  0  0  0  0  0  0  0
    6.6515   -1.0542   22.4920 C   0  0  0  0  0  0  0  0  0  0  0  0
    5.2243   -1.1789   22.9368 O   0  0  0  0  0  0  0  0  0  0  0  0
    7.8601   -1.4561   23.2843 C   0  0  0  0  0  0  0  0  0  0  0  0
    6.5593   -1.7002   23.9900 C   0  0  0  0  0  0  0  0  0  0  0  0
    6.5531   -2.2973   25.3661 N   0  0  0  0  0  0  0  0  0  0  0  0
    7.8477   -2.6504   26.0363 C   0  0  0  0  0  0  0  0  0  0  0  0
    7.8415   -3.2475   27.4123 O   0  0  0  0  0  0  0  0  0  0  0  0
    9.1486   -2.4063   25.3305 C   0  0  0  0  0  0  0  0  0  0  0  0
   10.4432   -2.7594   26.0007 C   0  0  0  0  0  0  0  0  0  0  0  0
   11.7441   -2.5153   25.2949 C   0  0  0  0  0  0  0  0  0  0  0  0
   11.7503   -1.9182   23.9189 C   0  0  0  0  0  0  0  0  0  0  0  0
   13.0512   -1.6741   23.2131 Cl  0  0  0  0  0  0  0  0  0  0  0  0
   10.4557   -1.5651   23.2487 C   0  0  0  0  0  0  0  0  0  0  0  0
    9.1548   -1.8092   23.9545 C   0  0  0  0  0  0  0  0  0  0  0  0
    6.2446    0.0143   20.0759 C   0  0  0  0  0  0  0  0  0  0  0  0
    6.2701   -0.6384   18.7257 C   0  0  0  0  0  0  0  0  0  0  0  0
    5.3943   -0.1184   17.6246 N   0  0  0  0  0  0  0  0  0  0  0  0
    4.4930    1.0544   17.8738 C   0  0  0  0  0  0  0  0  0  0  0  0
    4.4675    1.7072   19.2241 C   0  0  0  0  0  0  0  0  0  0  0  0
    3.5661    2.8800   19.4732 C   0  0  0  0  0  0  0  0  0  0  0  0
    3.5406    3.5327   20.8236 C   0  0  0  0  0  0  0  0  0  0  0  0
    4.4164    3.0126   21.9246 C   0  0  0  0  0  0  0  0  0  0  0  0
    5.3177    1.8398   21.6754 C   0  0  0  0  0  0  0  0  0  0  0  0
    5.3433    1.1871   20.3252 C   0  0  0  0  0  0  0  0  0  0  0  0
    5.2521   -2.5414   26.0718 C   0  0  0  0  0  0  0  0  0  0  0  0
    4.4784   -1.3881   26.6385 C   0  0  0  0  0  0  0  0  0  0  0  0
    5.1783   -0.1006   26.9590 N   0  0  0  0  0  0  0  0  0  0  0  0
    5.4589    0.8918   25.8697 C   0  0  0  0  0  0  0  0  0  0  0  0
    6.1587    2.1792   26.1901 C   0  0  0  0  0  0  0  0  0  0  0  0
    6.5780    2.4743   27.5998 O   0  0  0  0  0  0  0  0  0  0  0  0
    6.2974    1.4819   28.6890 C   0  0  0  0  0  0  0  0  0  0  0  0
    5.5975    0.1944   28.3686 C   0  0  0  0  0  0  0  0  0  0  0  0
    5.6542    0.7748   27.1769 H   0  0  0  0  0  0  0  0  0  0  0  0
  2  1  1  0  0  0
  2  3  1  0  0  0
  3  4  1  0  0  0
  4 19  1  0  0  0
 19 20  2  0  0  0
 20 21  1  0  0  0
 21 22  2  0  0  0
 22 23  1  0  0  0
 23 24  2  0  0  0
 24 25  1  0  0  0
 25 26  2  0  0  0
 26 27  1  0  0  0
 27 28  2  0  0  0
  4  5  1  0  0  0
  5  6  2  0  0  0
  5  7  1  0  0  0
  7  8  1  0  0  0
  8  9  1  0  0  0
  9 29  1  0  0  0
 29 30  1  0  0  0
 30 31  1  0  0  0
 31 32  1  0  0  0
 32 33  1  0  0  0
 33 34  1  0  0  0
 34 35  1  0  0  0
 35 36  1  0  0  0
  9 10  1  0  0  0
 10 11  2  0  0  0
 10 12  1  0  0  0
 12 13  2  0  0  0
 13 14  1  0  0  0
 14 15  2  0  0  0
 15 16  1  0  0  0
 15 17  1  0  0  0
 17 18  2  0  0  0
  7  2  1  0  0  0
 36 31  1  0  0  0
 18 12  1  0  0  0
 28 19  1  0  0  0
 18  7  1  0  0  0
 28 23  1  0  0  0
 31 37  1  0  0  0
M  CHG 1  31   1
M  END
> <minimizedAffinity>
-8.34791

> <CNNscore>
0.3725880086

> <CNNaffinity>
6.3893761635

> <CNN_VS>
2.3806049824

> <CNNaffinity_variance>
0.2200482637

$$$$



 37 42  0  0  0  0  0  0  0  0999 V2000
    7.1285    0.1706   20.2377 C   0  0  0  0  0  0  0  0  0  0  0  0
    7.5248    0.0831   21.6818 C   0  0  0  0  0  0  0  0  0  0  0  0
    8.9486   -0.3587   21.8479 C   0  0  0  0  0  0  0  0  0  0  0  0
    9.2480   -0.4153   23.3166 N   0  0  0  0  0  0  0  0  0  0  0  0
    8.0092   -0.0085   24.0582 C   0  0  0  0  0  0  0  0  0  0  0  0
    7.8615    0.0756   25.5485 O   0  0  0  0  0  0  0  0  0  0  0  0
    6.9442    0.2995   23.0478 C   0  0  0  0  0  0  0  0  0  0  0  0
    6.5036    0.4736   24.4710 C   0  0  0  0  0  0  0  0  0  0  0  0
    5.1038    0.9197   24.7736 N   0  0  0  0  0  0  0  0  0  0  0  0
    4.1446    1.1917   23.6529 C   0  0  0  0  0  0  0  0  0  0  0  0
    2.7448    1.6378   23.9555 O   0  0  0  0  0  0  0  0  0  0  0  0
    4.5852    1.0176   22.2296 C   0  0  0  0  0  0  0  0  0  0  0  0
    3.6260    1.2897   21.1090 C   0  0  0  0  0  0  0  0  0  0  0  0
    4.0666    1.1156   19.6858 C   0  0  0  0  0  0  0  0  0  0  0  0
    5.4664    0.6695   19.3833 C   0  0  0  0  0  0  0  0  0  0  0  0
    5.9070    0.4955   17.9600 Cl  0  0  0  0  0  0  0  0  0  0  0  0
    6.4256    0.3975   20.5039 C   0  0  0  0  0  0  0  0  0  0  0  0
    5.9850    0.5715   21.9271 C   0  0  0  0  0  0  0  0  0  0  0  0
   10.5565   -0.8094   23.9351 C   0  0  0  0  0  0  0  0  0  0  0  0
   11.7781    0.0297   23.7043 C   0  0  0  0  0  0  0  0  0  0  0  0
   13.0866   -0.3645   24.3228 N   0  0  0  0  0  0  0  0  0  0  0  0
   13.1733   -1.5977   25.1723 C   0  0  0  0  0  0  0  0  0  0  0  0
   11.9515   -2.4369   25.4031 C   0  0  0  0  0  0  0  0  0  0  0  0
   12.0383   -3.6702   26.2526 C   0  0  0  0  0  0  0  0  0  0  0  0
   10.8165   -4.5092   26.4834 C   0  0  0  0  0  0  0  0  0  0  0  0
    9.5082   -4.1150   25.8648 C   0  0  0  0  0  0  0  0  0  0  0  0
    9.4214   -2.8818   25.0154 C   0  0  0  0  0  0  0  0  0  0  0  0
   10.6431   -2.0427   24.7846 C   0  0  0  0  0  0  0  0  0  0  0  0
    4.6632    1.0937   26.1969 C   0  0  0  0  0  0  0  0  0  0  0  0
    3.9484   -0.0204   26.9023 C   0  0  0  0  0  0  0  0  0  0  0  0
    4.7331   -1.1001   27.5868 N   0  0  0  0  0  0  0  0  0  0  0  0
    4.8440   -1.1130   29.0827 C   0  0  0  0  0  0  0  0  0  0  0  0
    5.6287   -2.1926   29.7673 C   0  0  0  0  0  0  0  0  0  0  0  0
    6.3024   -3.2594   28.9561 O   0  0  0  0  0  0  0  0  0  0  0  0
    6.1915   -3.2465   27.4603 C   0  0  0  0  0  0  0  0  0  0  0  0
    5.4068   -2.1668   26.7756 C   0  0  0  0  0  0  0  0  0  0  0  0
    5.2666   -1.8342   28.0524 H   0  0  0  0  0  0  0  0  0  0  0  0
  2  1  1  0  0  0
  2  3  1  0  0  0
  3  4  1  0  0  0
  4 19  1  0  0  0
 19 20  2  0  0  0
 20 21  1  0  0  0
 21 22  2  0  0  0
 22 23  1  0  0  0
 23 24  2  0  0  0
 24 25  1  0  0  0
 25 26  2  0  0  0
 26 27  1  0  0  0
 27 28  2  0  0  0
  4  5  1  0  0  0
  5  6  2  0  0  0
  5  7  1  0  0  0
  7  8  1  0  0  0
  8  9  1  0  0  0
  9 29  1  0  0  0
 29 30  1  0  0  0
 30 31  1  0  0  0
 31 32  1  0  0  0
 32 33  1  0  0  0
 33 34  1  0  0  0
 34 35  1  0  0  0
 35 36  1  0  0  0
  9 10  1  0  0  0
 10 11  2  0  0  0
 10 12  1  0  0  0
 12 13  2  0  0  0
 13 14  1  0  0  0
 14 15  2  0  0  0
 15 16  1  0  0  0
 15 17  1  0  0  0
 17 18  2  0  0  0
  7  2  1  0  0  0
 36 31  1  0  0  0
 18 12  1  0  0  0
 28 19  1  0  0  0
 18  7  1  0  0  0
 28 23  1  0  0  0
 31 37  1  0  0  0
M  CHG 1  31   1
M  END
> <minimizedAffinity>
-8.25004

> <CNNscore>
0.3455567658

> <CNNaffinity>
6.1815900803

> <CNN_VS>
2.1360902786

> <CNNaffinity_variance>
0.3217850327

$$$$
