


 42 47  0  0  0  0  0  0  0  0999 V2000
   10.3665    1.0248   23.2870 N   0  0  0  0  0  0  0  0  0  0  0  0
    8.9793    0.7162   23.7668 C   0  0  0  0  0  0  0  0  0  0  0  0
    8.7469   -0.4362   24.6984 C   0  0  0  0  0  0  0  0  0  0  0  0
    8.3623   -1.5499   25.6267 C   0  0  0  0  0  0  0  0  0  0  0  0
    8.8711   -2.4638   26.2450 O   0  0  0  0  0  0  0  0  0  0  0  0
    6.8783   -1.4873   25.8361 N   0  0  0  0  0  0  0  0  0  0  0  0
    6.3457   -0.3348   25.0374 C   0  0  0  0  0  0  0  0  0  0  0  0
    7.5005    0.3148   24.3342 C   0  0  0  0  0  0  0  0  0  0  0  0
    9.9018   -1.2800   25.1503 C   0  0  0  0  0  0  0  0  0  0  0  0
    9.6694   -2.4324   26.0820 C   0  0  0  0  0  0  0  0  0  0  0  0
   10.8243   -3.2761   26.5338 C   0  0  0  0  0  0  0  0  0  0  0  0
   10.5920   -4.4286   27.4655 Cl  0  0  0  0  0  0  0  0  0  0  0  0
   12.2116   -2.9675   26.0541 C   0  0  0  0  0  0  0  0  0  0  0  0
   12.4440   -1.8152   25.1224 C   0  0  0  0  0  0  0  0  0  0  0  0
   11.2891   -0.9714   24.6706 C   0  0  0  0  0  0  0  0  0  0  0  0
   11.5214    0.1810   23.7389 C   0  0  0  0  0  0  0  0  0  0  0  0
   12.9087    0.4897   23.2591 O   0  0  0  0  0  0  0  0  0  0  0  0
    6.0691   -2.4144   26.6938 C   0  0  0  0  0  0  0  0  0  0  0  0
    5.7279   -3.7885   26.1983 C   0  0  0  0  0  0  0  0  0  0  0  0
    4.9187   -4.7156   27.0560 N   0  0  0  0  0  0  0  0  0  0  0  0
    4.4506   -4.2686   28.4091 C   0  0  0  0  0  0  0  0  0  0  0  0
    4.7918   -2.8945   28.9046 C   0  0  0  0  0  0  0  0  0  0  0  0
    4.3236   -2.4475   30.2579 C   0  0  0  0  0  0  0  0  0  0  0  0
    4.6648   -1.0734   30.7533 C   0  0  0  0  0  0  0  0  0  0  0  0
    5.4741   -0.1463   29.8956 C   0  0  0  0  0  0  0  0  0  0  0  0
    5.9421   -0.5933   28.5424 C   0  0  0  0  0  0  0  0  0  0  0  0
    5.6010   -1.9674   28.0470 C   0  0  0  0  0  0  0  0  0  0  0  0
   10.5989    2.1772   22.3553 C   0  0  0  0  0  0  0  0  0  0  0  0
   10.4236    6.0674   23.1207 C   0  0  0  0  0  0  0  0  0  0  0  0
   10.0829    4.7145   22.5698 N   0  0  0  0  0  0  0  0  0  0  0  0
   10.9396    3.5302   22.9063 C   0  0  0  0  0  0  0  0  0  0  0  0
   12.1372    3.6987   23.7938 O   0  0  0  0  0  0  0  0  0  0  0  0
    9.2969    4.6039   21.9873 H   0  0  0  0  0  0  0  0  0  0  0  0
    7.4226    1.5063   23.4263 C   0  0  0  0  0  0  0  0  0  0  0  0
    6.3558    2.5398   23.6349 N   0  0  0  0  0  0  0  0  0  0  0  0
    5.5383    2.5209   23.0867 H   0  0  0  0  0  0  0  0  0  0  0  0
    6.5344    3.6021   24.6787 C   0  0  0  0  0  0  0  0  0  0  0  0
    6.1981    3.4727   26.1348 C   0  0  0  0  0  0  0  0  0  0  0  0
    6.5366    4.7709   26.8057 N   0  0  0  0  0  0  0  0  0  0  0  0
    7.0821    5.7026   25.7643 N   0  0  0  0  0  0  0  0  0  0  0  0
    7.5472    7.1096   25.9967 C   0  0  0  0  0  0  0  0  0  0  0  0
    7.0807    4.9801   24.4497 C   0  0  0  0  0  0  0  0  0  0  0  0
 29 30  1  0  0  0
 30 31  1  0  0  0
 31 32  2  0  0  0
 31 28  1  0  0  0
 28  1  1  0  0  0
  1  2  1  0  0  0
  3  2  1  0  0  0
  3  4  1  0  0  0
  4  5  2  0  0  0
  4  6  1  0  0  0
  6 18  1  0  0  0
 18 19  2  0  0  0
 19 20  1  0  0  0
 20 21  2  0  0  0
 21 22  1  0  0  0
 22 23  2  0  0  0
 23 24  1  0  0  0
 24 25  2  0  0  0
 25 26  1  0  0  0
 26 27  2  0  0  0
  6  7  1  0  0  0
  7  8  1  0  0  0
  8 34  1  0  0  0
 34 35  1  0  0  0
 35 37  1  0  0  0
 37 38  1  0  0  0
 38 39  2  0  0  0
 39 40  1  0  0  0
 40 41  1  0  0  0
 40 42  1  0  0  0
  3  9  1  0  0  0
  9 10  2  0  0  0
 10 11  1  0  0  0
 11 12  1  0  0  0
 11 13  2  0  0  0
 13 14  1  0  0  0
 14 15  2  0  0  0
 15 16  1  0  0  0
 16 17  2  0  0  0
 16  1  1  0  0  0
  8  3  1  0  0  0
 42 37  2  0  0  0
 15  9  1  0  0  0
 27 18  1  0  0  0
 27 22  1  0  0  0
 30 33  1  0  0  0
 35 36  1  0  0  0
M  END
> <minimizedAffinity>
-7.39093

> <CNNscore>
0.2295607030

> <CNNaffinity>
6.6822800636

> <CNN_VS>
1.5339889526

> <CNNaffinity_variance>
0.2560443878

$$$$



 42 47  0  0  0  0  0  0  0  0999 V2000
    5.5641    3.5964   23.2048 N   0  0  0  0  0  0  0  0  0  0  0  0
    6.2013    2.2391   23.2474 C   0  0  0  0  0  0  0  0  0  0  0  0
    7.6958    2.1115   23.2343 C   0  0  0  0  0  0  0  0  0  0  0  0
    9.1688    1.8285   23.2272 C   0  0  0  0  0  0  0  0  0  0  0  0
   10.2300    2.4192   23.1926 O   0  0  0  0  0  0  0  0  0  0  0  0
    9.3553    0.3410   23.2800 N   0  0  0  0  0  0  0  0  0  0  0  0
    7.9975   -0.2952   23.3198 C   0  0  0  0  0  0  0  0  0  0  0  0
    6.9719    0.7990   23.2915 C   0  0  0  0  0  0  0  0  0  0  0  0
    8.5531    3.3412   23.1786 C   0  0  0  0  0  0  0  0  0  0  0  0
   10.0476    3.2135   23.1654 C   0  0  0  0  0  0  0  0  0  0  0  0
   10.9048    4.4432   23.1097 C   0  0  0  0  0  0  0  0  0  0  0  0
   12.3994    4.3156   23.0966 Cl  0  0  0  0  0  0  0  0  0  0  0  0
   10.2676    5.8004   23.0671 C   0  0  0  0  0  0  0  0  0  0  0  0
    8.7731    5.9280   23.0802 C   0  0  0  0  0  0  0  0  0  0  0  0
    7.9159    4.6984   23.1359 C   0  0  0  0  0  0  0  0  0  0  0  0
    6.4213    4.8260   23.1491 C   0  0  0  0  0  0  0  0  0  0  0  0
    5.7841    6.1832   23.1064 O   0  0  0  0  0  0  0  0  0  0  0  0
   10.6690   -0.3830   23.2911 C   0  0  0  0  0  0  0  0  0  0  0  0
   11.6752   -0.1279   22.2083 C   0  0  0  0  0  0  0  0  0  0  0  0
   12.9888   -0.8519   22.2194 N   0  0  0  0  0  0  0  0  0  0  0  0
   13.2963   -1.8310   23.3133 C   0  0  0  0  0  0  0  0  0  0  0  0
   12.2901   -2.0861   24.3962 C   0  0  0  0  0  0  0  0  0  0  0  0
   12.5976   -3.0653   25.4902 C   0  0  0  0  0  0  0  0  0  0  0  0
   11.5913   -3.3204   26.5730 C   0  0  0  0  0  0  0  0  0  0  0  0
   10.2777   -2.5963   26.5619 C   0  0  0  0  0  0  0  0  0  0  0  0
    9.9702   -1.6172   25.4679 C   0  0  0  0  0  0  0  0  0  0  0  0
   10.9764   -1.3621   24.3851 C   0  0  0  0  0  0  0  0  0  0  0  0
    4.0695    3.7239   23.2179 C   0  0  0  0  0  0  0  0  0  0  0  0
    1.1879    4.8095   20.7145 C   0  0  0  0  0  0  0  0  0  0  0  0
    1.9283    4.5338   21.9895 N   0  0  0  0  0  0  0  0  0  0  0  0
    3.3291    3.9997   21.9429 C   0  0  0  0  0  0  0  0  0  0  0  0
    3.9897    3.7413   20.6211 O   0  0  0  0  0  0  0  0  0  0  0  0
    1.4947    4.7033   22.8570 H   0  0  0  0  0  0  0  0  0  0  0  0
    5.4837    0.6132   23.3162 C   0  0  0  0  0  0  0  0  0  0  0  0
    4.8148   -0.2240   22.2667 N   0  0  0  0  0  0  0  0  0  0  0  0
    4.0897   -0.8409   22.5175 H   0  0  0  0  0  0  0  0  0  0  0  0
    5.2506   -0.1214   20.8351 C   0  0  0  0  0  0  0  0  0  0  0  0
    6.4794   -0.7435   20.2407 C   0  0  0  0  0  0  0  0  0  0  0  0
    6.5223   -0.3852   18.7848 N   0  0  0  0  0  0  0  0  0  0  0  0
    5.3202    0.4583   18.4793 N   0  0  0  0  0  0  0  0  0  0  0  0
    4.9661    1.0371   17.1415 C   0  0  0  0  0  0  0  0  0  0  0  0
    4.5342    0.6214   19.7464 C   0  0  0  0  0  0  0  0  0  0  0  0
 29 30  1  0  0  0
 30 31  1  0  0  0
 31 32  2  0  0  0
 31 28  1  0  0  0
 28  1  1  0  0  0
  1  2  1  0  0  0
  3  2  1  0  0  0
  3  4  1  0  0  0
  4  5  2  0  0  0
  4  6  1  0  0  0
  6 18  1  0  0  0
 18 19  2  0  0  0
 19 20  1  0  0  0
 20 21  2  0  0  0
 21 22  1  0  0  0
 22 23  2  0  0  0
 23 24  1  0  0  0
 24 25  2  0  0  0
 25 26  1  0  0  0
 26 27  2  0  0  0
  6  7  1  0  0  0
  7  8  1  0  0  0
  8 34  1  0  0  0
 34 35  1  0  0  0
 35 37  1  0  0  0
 37 38  1  0  0  0
 38 39  2  0  0  0
 39 40  1  0  0  0
 40 41  1  0  0  0
 40 42  1  0  0  0
  3  9  1  0  0  0
  9 10  2  0  0  0
 10 11  1  0  0  0
 11 12  1  0  0  0
 11 13  2  0  0  0
 13 14  1  0  0  0
 14 15  2  0  0  0
 15 16  1  0  0  0
 16 17  2  0  0  0
 16  1  1  0  0  0
  8  3  1  0  0  0
 42 37  2  0  0  0
 15  9  1  0  0  0
 27 18  1  0  0  0
 27 22  1  0  0  0
 30 33  1  0  0  0
 35 36  1  0  0  0
M  END
> <minimizedAffinity>
-7.85243

> <CNNscore>
0.2169047743

> <CNNaffinity>
6.5503044128

> <CNN_VS>
1.4207923412

> <CNNaffinity_variance>
0.1122582331

$$$$



 42 47  0  0  0  0  0  0  0  0999 V2000
    9.6868    0.6023   22.7725 N   0  0  0  0  0  0  0  0  0  0  0  0
    8.5436   -0.3606   22.6451 C   0  0  0  0  0  0  0  0  0  0  0  0
    8.5512   -1.6413   23.4258 C   0  0  0  0  0  0  0  0  0  0  0  0
    8.4203   -2.9540   24.1398 C   0  0  0  0  0  0  0  0  0  0  0  0
    9.0253   -3.6455   24.9349 O   0  0  0  0  0  0  0  0  0  0  0  0
    7.1265   -3.5845   23.7174 N   0  0  0  0  0  0  0  0  0  0  0  0
    6.4577   -2.6615   22.7423 C   0  0  0  0  0  0  0  0  0  0  0  0
    7.3383   -1.4605   22.5621 C   0  0  0  0  0  0  0  0  0  0  0  0
    9.7020   -1.9593   24.3340 C   0  0  0  0  0  0  0  0  0  0  0  0
    9.7096   -3.2400   25.1147 C   0  0  0  0  0  0  0  0  0  0  0  0
   10.8603   -3.5580   26.0229 C   0  0  0  0  0  0  0  0  0  0  0  0
   10.8679   -4.8388   26.8036 Cl  0  0  0  0  0  0  0  0  0  0  0  0
   12.0034   -2.5951   26.1502 C   0  0  0  0  0  0  0  0  0  0  0  0
   11.9958   -1.3144   25.3695 C   0  0  0  0  0  0  0  0  0  0  0  0
   10.8451   -0.9965   24.4614 C   0  0  0  0  0  0  0  0  0  0  0  0
   10.8375    0.2843   23.6806 C   0  0  0  0  0  0  0  0  0  0  0  0
   11.9806    1.2471   23.8080 O   0  0  0  0  0  0  0  0  0  0  0  0
    6.5948   -4.9059   24.1875 C   0  0  0  0  0  0  0  0  0  0  0  0
    7.1630   -6.1811   23.6387 C   0  0  0  0  0  0  0  0  0  0  0  0
    6.6313   -7.5026   24.1088 N   0  0  0  0  0  0  0  0  0  0  0  0
    5.5314   -7.5489   25.1277 C   0  0  0  0  0  0  0  0  0  0  0  0
    4.9632   -6.2737   25.6764 C   0  0  0  0  0  0  0  0  0  0  0  0
    3.8632   -6.3200   26.6952 C   0  0  0  0  0  0  0  0  0  0  0  0
    3.2950   -5.0448   27.2439 C   0  0  0  0  0  0  0  0  0  0  0  0
    3.8267   -3.7233   26.7738 C   0  0  0  0  0  0  0  0  0  0  0  0
    4.9266   -3.6771   25.7550 C   0  0  0  0  0  0  0  0  0  0  0  0
    5.4949   -4.9522   25.2063 C   0  0  0  0  0  0  0  0  0  0  0  0
    9.6791    1.8831   21.9917 C   0  0  0  0  0  0  0  0  0  0  0  0
    8.3767    5.3535   23.4092 C   0  0  0  0  0  0  0  0  0  0  0  0
    9.3025    4.2409   23.0158 N   0  0  0  0  0  0  0  0  0  0  0  0
    8.7533    2.9957   22.3851 C   0  0  0  0  0  0  0  0  0  0  0  0
    7.2781    2.8632   22.1477 O   0  0  0  0  0  0  0  0  0  0  0  0
   10.2707    4.3279   23.1716 H   0  0  0  0  0  0  0  0  0  0  0  0
    7.0554   -0.2852   21.6741 C   0  0  0  0  0  0  0  0  0  0  0  0
    6.8517   -0.4891   20.2021 N   0  0  0  0  0  0  0  0  0  0  0  0
    7.4125   -1.1330   19.7121 H   0  0  0  0  0  0  0  0  0  0  0  0
    5.7934    0.2879   19.4767 C   0  0  0  0  0  0  0  0  0  0  0  0
    5.6432    0.3956   17.9881 C   0  0  0  0  0  0  0  0  0  0  0  0
    4.4565    1.2679   17.7039 N   0  0  0  0  0  0  0  0  0  0  0  0
    3.8733    1.6994   19.0168 N   0  0  0  0  0  0  0  0  0  0  0  0
    2.6744    2.5817   19.2016 C   0  0  0  0  0  0  0  0  0  0  0  0
    4.6996    1.0938   20.1125 C   0  0  0  0  0  0  0  0  0  0  0  0
 29 30  1  0  0  0
 30 31  1  0  0  0
 31 32  2  0  0  0
 31 28  1  0  0  0
 28  1  1  0  0  0
  1  2  1  0  0  0
  3  2  1  0  0  0
  3  4  1  0  0  0
  4  5  2  0  0  0
  4  6  1  0  0  0
  6 18  1  0  0  0
 18 19  2  0  0  0
 19 20  1  0  0  0
 20 21  2  0  0  0
 21 22  1  0  0  0
 22 23  2  0  0  0
 23 24  1  0  0  0
 24 25  2  0  0  0
 25 26  1  0  0  0
 26 27  2  0  0  0
  6  7  1  0  0  0
  7  8  1  0  0  0
  8 34  1  0  0  0
 34 35  1  0  0  0
 35 37  1  0  0  0
 37 38  1  0  0  0
 38 39  2  0  0  0
 39 40  1  0  0  0
 40 41  1  0  0  0
 40 42  1  0  0  0
  3  9  1  0  0  0
  9 10  2  0  0  0
 10 11  1  0  0  0
 11 12  1  0  0  0
 11 13  2  0  0  0
 13 14  1  0  0  0
 14 15  2  0  0  0
 15 16  1  0  0  0
 16 17  2  0  0  0
 16  1  1  0  0  0
  8  3  1  0  0  0
 42 37  2  0  0  0
 15  9  1  0  0  0
 27 18  1  0  0  0
 27 22  1  0  0  0
 30 33  1  0  0  0
 35 36  1  0  0  0
M  END
> <minimizedAffinity>
-9.36122

> <CNNscore>
0.2094682902

> <CNNaffinity>
6.8771944046

> <CNN_VS>
1.4405541420

> <CNNaffinity_variance>
0.1613647044

$$$$



 42 47  0  0  0  0  0  0  0  0999 V2000
    8.8388   -3.2545   25.6353 N   0  0  0  0  0  0  0  0  0  0  0  0
    8.4217   -2.5672   24.3689 C   0  0  0  0  0  0  0  0  0  0  0  0
    7.1438   -1.7829   24.3271 C   0  0  0  0  0  0  0  0  0  0  0  0
    5.8996   -0.9673   24.1353 C   0  0  0  0  0  0  0  0  0  0  0  0
    4.9254   -0.5949   24.7586 O   0  0  0  0  0  0  0  0  0  0  0  0
    5.8844   -0.4709   22.7198 N   0  0  0  0  0  0  0  0  0  0  0  0
    7.1192   -0.9798   22.0369 C   0  0  0  0  0  0  0  0  0  0  0  0
    7.8975   -1.7906   23.0303 C   0  0  0  0  0  0  0  0  0  0  0  0
    6.2830   -1.6858   25.5518 C   0  0  0  0  0  0  0  0  0  0  0  0
    5.0051   -0.9015   25.5100 C   0  0  0  0  0  0  0  0  0  0  0  0
    4.1443   -0.8045   26.7346 C   0  0  0  0  0  0  0  0  0  0  0  0
    2.8664   -0.0201   26.6929 Cl  0  0  0  0  0  0  0  0  0  0  0  0
    4.5615   -1.4917   28.0010 C   0  0  0  0  0  0  0  0  0  0  0  0
    5.8394   -2.2760   28.0427 C   0  0  0  0  0  0  0  0  0  0  0  0
    6.7001   -2.3731   26.8181 C   0  0  0  0  0  0  0  0  0  0  0  0
    7.9781   -3.1574   26.8599 C   0  0  0  0  0  0  0  0  0  0  0  0
    8.3953   -3.8447   28.1262 O   0  0  0  0  0  0  0  0  0  0  0  0
    4.8211    0.3842   22.0968 C   0  0  0  0  0  0  0  0  0  0  0  0
    3.7643    1.0121   22.9564 C   0  0  0  0  0  0  0  0  0  0  0  0
    2.7010    1.8672   22.3333 N   0  0  0  0  0  0  0  0  0  0  0  0
    2.6945    2.0944   20.8507 C   0  0  0  0  0  0  0  0  0  0  0  0
    3.7513    1.4664   19.9911 C   0  0  0  0  0  0  0  0  0  0  0  0
    3.7448    1.6937   18.5083 C   0  0  0  0  0  0  0  0  0  0  0  0
    4.8017    1.0657   17.6488 C   0  0  0  0  0  0  0  0  0  0  0  0
    5.8650    0.2106   18.2719 C   0  0  0  0  0  0  0  0  0  0  0  0
    5.8715   -0.0166   19.7545 C   0  0  0  0  0  0  0  0  0  0  0  0
    4.8146    0.6113   20.6141 C   0  0  0  0  0  0  0  0  0  0  0  0
   10.1168   -4.0388   25.6770 C   0  0  0  0  0  0  0  0  0  0  0  0
   13.7455   -2.8692   26.7791 C   0  0  0  0  0  0  0  0  0  0  0  0
   12.4267   -3.5839   26.7758 N   0  0  0  0  0  0  0  0  0  0  0  0
   11.4356   -3.3241   25.6803 C   0  0  0  0  0  0  0  0  0  0  0  0
   11.7633   -2.3497   24.5879 O   0  0  0  0  0  0  0  0  0  0  0  0
   12.2116   -4.2235   27.4927 H   0  0  0  0  0  0  0  0  0  0  0  0
    9.2007   -2.4870   22.7721 C   0  0  0  0  0  0  0  0  0  0  0  0
   10.1656   -1.9254   21.7704 N   0  0  0  0  0  0  0  0  0  0  0  0
   10.2164   -2.3110   20.8660 H   0  0  0  0  0  0  0  0  0  0  0  0
   11.0532   -0.7761   22.1465 C   0  0  0  0  0  0  0  0  0  0  0  0
   12.5524   -0.7681   22.1003 C   0  0  0  0  0  0  0  0  0  0  0  0
   13.0231    0.5799   22.5601 N   0  0  0  0  0  0  0  0  0  0  0  0
   11.8147    1.4049   22.8906 N   0  0  0  0  0  0  0  0  0  0  0  0
   11.8225    2.8197   23.3891 C   0  0  0  0  0  0  0  0  0  0  0  0
   10.5972    0.5669   22.6349 C   0  0  0  0  0  0  0  0  0  0  0  0
 29 30  1  0  0  0
 30 31  1  0  0  0
 31 32  2  0  0  0
 31 28  1  0  0  0
 28  1  1  0  0  0
  1  2  1  0  0  0
  3  2  1  0  0  0
  3  4  1  0  0  0
  4  5  2  0  0  0
  4  6  1  0  0  0
  6 18  1  0  0  0
 18 19  2  0  0  0
 19 20  1  0  0  0
 20 21  2  0  0  0
 21 22  1  0  0  0
 22 23  2  0  0  0
 23 24  1  0  0  0
 24 25  2  0  0  0
 25 26  1  0  0  0
 26 27  2  0  0  0
  6  7  1  0  0  0
  7  8  1  0  0  0
  8 34  1  0  0  0
 34 35  1  0  0  0
 35 37  1  0  0  0
 37 38  1  0  0  0
 38 39  2  0  0  0
 39 40  1  0  0  0
 40 41  1  0  0  0
 40 42  1  0  0  0
  3  9  1  0  0  0
  9 10  2  0  0  0
 10 11  1  0  0  0
 11 12  1  0  0  0
 11 13  2  0  0  0
 13 14  1  0  0  0
 14 15  2  0  0  0
 15 16  1  0  0  0
 16 17  2  0  0  0
 16  1  1  0  0  0
  8  3  1  0  0  0
 42 37  2  0  0  0
 15  9  1  0  0  0
 27 18  1  0  0  0
 27 22  1  0  0  0
 30 33  1  0  0  0
 35 36  1  0  0  0
M  END
> <minimizedAffinity>
-8.59013

> <CNNscore>
0.2058259696

> <CNNaffinity>
6.6394414902

> <CNN_VS>
1.3665695190

> <CNNaffinity_variance>
0.4926658273

$$$$



 42 47  0  0  0  0  0  0  0  0999 V2000
   10.4668    1.1779   23.2077 N   0  0  0  0  0  0  0  0  0  0  0  0
    9.0792    0.8440   23.6692 C   0  0  0  0  0  0  0  0  0  0  0  0
    8.8550   -0.3156   24.5939 C   0  0  0  0  0  0  0  0  0  0  0  0
    8.4780   -1.4391   25.5134 C   0  0  0  0  0  0  0  0  0  0  0  0
    8.9946   -2.3465   26.1349 O   0  0  0  0  0  0  0  0  0  0  0  0
    6.9907   -1.4024   25.7047 N   0  0  0  0  0  0  0  0  0  0  0  0
    6.4485   -0.2562   24.9034 C   0  0  0  0  0  0  0  0  0  0  0  0
    7.6006    0.4155   24.2169 C   0  0  0  0  0  0  0  0  0  0  0  0
   10.0185   -1.1413   25.0571 C   0  0  0  0  0  0  0  0  0  0  0  0
    9.7943   -2.3009   25.9818 C   0  0  0  0  0  0  0  0  0  0  0  0
   10.9577   -3.1266   26.4450 C   0  0  0  0  0  0  0  0  0  0  0  0
   10.7335   -4.2862   27.3698 Cl  0  0  0  0  0  0  0  0  0  0  0  0
   12.3453   -2.7927   25.9835 C   0  0  0  0  0  0  0  0  0  0  0  0
   12.5695   -1.6332   25.0588 C   0  0  0  0  0  0  0  0  0  0  0  0
   11.4061   -0.8075   24.5956 C   0  0  0  0  0  0  0  0  0  0  0  0
   11.6303    0.3522   23.6709 C   0  0  0  0  0  0  0  0  0  0  0  0
   13.0179    0.6860   23.2094 O   0  0  0  0  0  0  0  0  0  0  0  0
    6.1869   -2.3463   26.5491 C   0  0  0  0  0  0  0  0  0  0  0  0
    5.8984   -3.7334   26.0564 C   0  0  0  0  0  0  0  0  0  0  0  0
    5.0946   -4.6772   26.9007 N   0  0  0  0  0  0  0  0  0  0  0  0
    4.5792   -4.2339   28.2378 C   0  0  0  0  0  0  0  0  0  0  0  0
    4.8677   -2.8468   28.7306 C   0  0  0  0  0  0  0  0  0  0  0  0
    4.3522   -2.4036   30.0678 C   0  0  0  0  0  0  0  0  0  0  0  0
    4.6407   -1.0165   30.5604 C   0  0  0  0  0  0  0  0  0  0  0  0
    5.4446   -0.0726   29.7160 C   0  0  0  0  0  0  0  0  0  0  0  0
    5.9600   -0.5159   28.3789 C   0  0  0  0  0  0  0  0  0  0  0  0
    5.6715   -1.9030   27.8862 C   0  0  0  0  0  0  0  0  0  0  0  0
   10.6910    2.3375   22.2829 C   0  0  0  0  0  0  0  0  0  0  0  0
   10.1975    6.1301   23.3423 C   0  0  0  0  0  0  0  0  0  0  0  0
    9.9179    4.7671   22.7819 N   0  0  0  0  0  0  0  0  0  0  0  0
   10.9707    3.7005   22.8433 C   0  0  0  0  0  0  0  0  0  0  0  0
   12.3032    3.9968   23.4652 O   0  0  0  0  0  0  0  0  0  0  0  0
    9.0433    4.5726   22.3738 H   0  0  0  0  0  0  0  0  0  0  0  0
    7.5137    1.6088   23.3121 C   0  0  0  0  0  0  0  0  0  0  0  0
    6.3062    1.8057   22.4444 N   0  0  0  0  0  0  0  0  0  0  0  0
    5.5281    2.3009   22.7888 H   0  0  0  0  0  0  0  0  0  0  0  0
    6.2841    1.2482   21.0521 C   0  0  0  0  0  0  0  0  0  0  0  0
    7.2919    0.3059   20.4635 C   0  0  0  0  0  0  0  0  0  0  0  0
    6.8809    0.0104   19.0515 N   0  0  0  0  0  0  0  0  0  0  0  0
    5.6191    0.7702   18.7674 N   0  0  0  0  0  0  0  0  0  0  0  0
    4.8596    0.7657   17.4739 C   0  0  0  0  0  0  0  0  0  0  0  0
    5.2503    1.5352   20.0038 C   0  0  0  0  0  0  0  0  0  0  0  0
 29 30  1  0  0  0
 30 31  1  0  0  0
 31 32  2  0  0  0
 31 28  1  0  0  0
 28  1  1  0  0  0
  1  2  1  0  0  0
  3  2  1  0  0  0
  3  4  1  0  0  0
  4  5  2  0  0  0
  4  6  1  0  0  0
  6 18  1  0  0  0
 18 19  2  0  0  0
 19 20  1  0  0  0
 20 21  2  0  0  0
 21 22  1  0  0  0
 22 23  2  0  0  0
 23 24  1  0  0  0
 24 25  2  0  0  0
 25 26  1  0  0  0
 26 27  2  0  0  0
  6  7  1  0  0  0
  7  8  1  0  0  0
  8 34  1  0  0  0
 34 35  1  0  0  0
 35 37  1  0  0  0
 37 38  1  0  0  0
 38 39  2  0  0  0
 39 40  1  0  0  0
 40 41  1  0  0  0
 40 42  1  0  0  0
  3  9  1  0  0  0
  9 10  2  0  0  0
 10 11  1  0  0  0
 11 12  1  0  0  0
 11 13  2  0  0  0
 13 14  1  0  0  0
 14 15  2  0  0  0
 15 16  1  0  0  0
 16 17  2  0  0  0
 16  1  1  0  0  0
  8  3  1  0  0  0
 42 37  2  0  0  0
 15  9  1  0  0  0
 27 18  1  0  0  0
 27 22  1  0  0  0
 30 33  1  0  0  0
 35 36  1  0  0  0
M  END
> <minimizedAffinity>
-8.52429

> <CNNscore>
0.1949174553

> <CNNaffinity>
6.7682237625

> <CNN_VS>
1.3192449808

> <CNNaffinity_variance>
0.1535822749

$$$$



 42 47  0  0  0  0  0  0  0  0999 V2000
    9.8252    0.5988   22.9124 N   0  0  0  0  0  0  0  0  0  0  0  0
    8.6635   -0.3403   22.7762 C   0  0  0  0  0  0  0  0  0  0  0  0
    8.6619   -1.6439   23.5182 C   0  0  0  0  0  0  0  0  0  0  0  0
    8.5201   -2.9750   24.1949 C   0  0  0  0  0  0  0  0  0  0  0  0
    9.1262   -3.7002   24.9585 O   0  0  0  0  0  0  0  0  0  0  0  0
    7.2086   -3.5705   23.7763 N   0  0  0  0  0  0  0  0  0  0  0  0
    6.5397   -2.6074   22.8408 C   0  0  0  0  0  0  0  0  0  0  0  0
    7.4379   -1.4167   22.6813 C   0  0  0  0  0  0  0  0  0  0  0  0
    9.8220   -2.0084   24.3964 C   0  0  0  0  0  0  0  0  0  0  0  0
    9.8204   -3.3120   25.1384 C   0  0  0  0  0  0  0  0  0  0  0  0
   10.9805   -3.6765   26.0166 C   0  0  0  0  0  0  0  0  0  0  0  0
   10.9789   -4.9802   26.7587 Cl  0  0  0  0  0  0  0  0  0  0  0  0
   12.1422   -2.7375   26.1528 C   0  0  0  0  0  0  0  0  0  0  0  0
   12.1438   -1.4339   25.4108 C   0  0  0  0  0  0  0  0  0  0  0  0
   10.9837   -1.0694   24.5326 C   0  0  0  0  0  0  0  0  0  0  0  0
   10.9853    0.2343   23.7906 C   0  0  0  0  0  0  0  0  0  0  0  0
   12.1470    1.1734   23.9268 O   0  0  0  0  0  0  0  0  0  0  0  0
    6.6619   -4.8964   24.2159 C   0  0  0  0  0  0  0  0  0  0  0  0
    7.2194   -6.1651   23.6419 C   0  0  0  0  0  0  0  0  0  0  0  0
    6.6727   -7.4910   24.0816 N   0  0  0  0  0  0  0  0  0  0  0  0
    5.5686   -7.5480   25.0953 C   0  0  0  0  0  0  0  0  0  0  0  0
    5.0111   -6.2793   25.6693 C   0  0  0  0  0  0  0  0  0  0  0  0
    3.9069   -6.3364   26.6831 C   0  0  0  0  0  0  0  0  0  0  0  0
    3.3495   -5.0676   27.2570 C   0  0  0  0  0  0  0  0  0  0  0  0
    3.8962   -3.7417   26.8174 C   0  0  0  0  0  0  0  0  0  0  0  0
    5.0003   -3.6847   25.8037 C   0  0  0  0  0  0  0  0  0  0  0  0
    5.5578   -4.9534   25.2296 C   0  0  0  0  0  0  0  0  0  0  0  0
    9.8268    1.9024   22.1703 C   0  0  0  0  0  0  0  0  0  0  0  0
   11.5503    5.4656   22.4591 C   0  0  0  0  0  0  0  0  0  0  0  0
   10.5789    4.3876   22.0792 N   0  0  0  0  0  0  0  0  0  0  0  0
   10.7982    2.9805   22.5502 C   0  0  0  0  0  0  0  0  0  0  0  0
   11.9888    2.6513   23.4011 O   0  0  0  0  0  0  0  0  0  0  0  0
    9.7975    4.6036   21.5207 H   0  0  0  0  0  0  0  0  0  0  0  0
    7.1608   -0.2106   21.8337 C   0  0  0  0  0  0  0  0  0  0  0  0
    6.9672   -0.3620   20.3541 N   0  0  0  0  0  0  0  0  0  0  0  0
    7.5657   -0.9482   19.8368 H   0  0  0  0  0  0  0  0  0  0  0  0
    5.8619    0.3795   19.6624 C   0  0  0  0  0  0  0  0  0  0  0  0
    5.5986    0.3931   18.1857 C   0  0  0  0  0  0  0  0  0  0  0  0
    4.3999    1.2597   17.9367 N   0  0  0  0  0  0  0  0  0  0  0  0
    3.9223    1.7817   19.2594 N   0  0  0  0  0  0  0  0  0  0  0  0
    2.7475    2.6885   19.4772 C   0  0  0  0  0  0  0  0  0  0  0  0
    4.8260    1.2377   20.3259 C   0  0  0  0  0  0  0  0  0  0  0  0
 29 30  1  0  0  0
 30 31  1  0  0  0
 31 32  2  0  0  0
 31 28  1  0  0  0
 28  1  1  0  0  0
  1  2  1  0  0  0
  3  2  1  0  0  0
  3  4  1  0  0  0
  4  5  2  0  0  0
  4  6  1  0  0  0
  6 18  1  0  0  0
 18 19  2  0  0  0
 19 20  1  0  0  0
 20 21  2  0  0  0
 21 22  1  0  0  0
 22 23  2  0  0  0
 23 24  1  0  0  0
 24 25  2  0  0  0
 25 26  1  0  0  0
 26 27  2  0  0  0
  6  7  1  0  0  0
  7  8  1  0  0  0
  8 34  1  0  0  0
 34 35  1  0  0  0
 35 37  1  0  0  0
 37 38  1  0  0  0
 38 39  2  0  0  0
 39 40  1  0  0  0
 40 41  1  0  0  0
 40 42  1  0  0  0
  3  9  1  0  0  0
  9 10  2  0  0  0
 10 11  1  0  0  0
 11 12  1  0  0  0
 11 13  2  0  0  0
 13 14  1  0  0  0
 14 15  2  0  0  0
 15 16  1  0  0  0
 16 17  2  0  0  0
 16  1  1  0  0  0
  8  3  1  0  0  0
 42 37  2  0  0  0
 15  9  1  0  0  0
 27 18  1  0  0  0
 27 22  1  0  0  0
 30 33  1  0  0  0
 35 36  1  0  0  0
M  END
> <minimizedAffinity>
-9.53004

> <CNNscore>
0.1929592043

> <CNNaffinity>
6.9453301430

> <CNN_VS>
1.3401653767

> <CNNaffinity_variance>
0.1090292782

$$$$



 42 47  0  0  0  0  0  0  0  0999 V2000
   10.8785    1.6205   22.6470 N   0  0  0  0  0  0  0  0  0  0  0  0
    9.4966    1.2031   23.0547 C   0  0  0  0  0  0  0  0  0  0  0  0
    9.3031   -0.0077   23.9186 C   0  0  0  0  0  0  0  0  0  0  0  0
    8.9555   -1.1893   24.7749 C   0  0  0  0  0  0  0  0  0  0  0  0
    9.4977   -2.1008   25.3678 O   0  0  0  0  0  0  0  0  0  0  0  0
    7.4638   -1.2287   24.9271 N   0  0  0  0  0  0  0  0  0  0  0  0
    6.8894   -0.0715   24.1648 C   0  0  0  0  0  0  0  0  0  0  0  0
    8.0261    0.6831   23.5416 C   0  0  0  0  0  0  0  0  0  0  0  0
   10.4915   -0.8012   24.3749 C   0  0  0  0  0  0  0  0  0  0  0  0
   10.2980   -2.0121   25.2388 C   0  0  0  0  0  0  0  0  0  0  0  0
   11.4863   -2.8055   25.6951 C   0  0  0  0  0  0  0  0  0  0  0  0
   11.2928   -4.0164   26.5591 Cl  0  0  0  0  0  0  0  0  0  0  0  0
   12.8682   -2.3881   25.2874 C   0  0  0  0  0  0  0  0  0  0  0  0
   13.0617   -1.1773   24.4235 C   0  0  0  0  0  0  0  0  0  0  0  0
   11.8734   -0.3838   23.9673 C   0  0  0  0  0  0  0  0  0  0  0  0
   12.0669    0.8271   23.1033 C   0  0  0  0  0  0  0  0  0  0  0  0
   13.4487    1.2445   22.6957 O   0  0  0  0  0  0  0  0  0  0  0  0
    6.6834   -2.2465   25.7049 C   0  0  0  0  0  0  0  0  0  0  0  0
    6.2638   -1.9527   27.1147 C   0  0  0  0  0  0  0  0  0  0  0  0
    5.4834   -2.9706   27.8925 N   0  0  0  0  0  0  0  0  0  0  0  0
    5.1228   -4.2823   27.2606 C   0  0  0  0  0  0  0  0  0  0  0  0
    5.5425   -4.5761   25.8507 C   0  0  0  0  0  0  0  0  0  0  0  0
    5.1818   -5.8878   25.2187 C   0  0  0  0  0  0  0  0  0  0  0  0
    5.6015   -6.1815   23.8089 C   0  0  0  0  0  0  0  0  0  0  0  0
    6.3818   -5.1636   23.0311 C   0  0  0  0  0  0  0  0  0  0  0  0
    6.7425   -3.8520   23.6631 C   0  0  0  0  0  0  0  0  0  0  0  0
    6.3228   -3.5582   25.0729 C   0  0  0  0  0  0  0  0  0  0  0  0
   11.0720    2.8314   21.7831 C   0  0  0  0  0  0  0  0  0  0  0  0
   10.8088    6.4427   23.4075 C   0  0  0  0  0  0  0  0  0  0  0  0
   10.4137    5.1349   22.7882 N   0  0  0  0  0  0  0  0  0  0  0  0
   11.4671    4.1392   22.4024 C   0  0  0  0  0  0  0  0  0  0  0  0
   12.9156    4.4512   22.6359 O   0  0  0  0  0  0  0  0  0  0  0  0
    9.4630    4.9302   22.6349 H   0  0  0  0  0  0  0  0  0  0  0  0
    7.9069    1.9126   22.6907 C   0  0  0  0  0  0  0  0  0  0  0  0
    6.8765    1.9746   21.6024 N   0  0  0  0  0  0  0  0  0  0  0  0
    6.8809    1.3039   20.8817 H   0  0  0  0  0  0  0  0  0  0  0  0
    5.8395    3.0583   21.6121 C   0  0  0  0  0  0  0  0  0  0  0  0
    4.5680    3.0691   20.8165 C   0  0  0  0  0  0  0  0  0  0  0  0
    3.8347    4.3390   21.1318 N   0  0  0  0  0  0  0  0  0  0  0  0
    4.6530    5.1132   22.1222 N   0  0  0  0  0  0  0  0  0  0  0  0
    4.2951    6.4450   22.7122 C   0  0  0  0  0  0  0  0  0  0  0  0
    5.8921    4.3217   22.4191 C   0  0  0  0  0  0  0  0  0  0  0  0
 29 30  1  0  0  0
 30 31  1  0  0  0
 31 32  2  0  0  0
 31 28  1  0  0  0
 28  1  1  0  0  0
  1  2  1  0  0  0
  3  2  1  0  0  0
  3  4  1  0  0  0
  4  5  2  0  0  0
  4  6  1  0  0  0
  6 18  1  0  0  0
 18 19  2  0  0  0
 19 20  1  0  0  0
 20 21  2  0  0  0
 21 22  1  0  0  0
 22 23  2  0  0  0
 23 24  1  0  0  0
 24 25  2  0  0  0
 25 26  1  0  0  0
 26 27  2  0  0  0
  6  7  1  0  0  0
  7  8  1  0  0  0
  8 34  1  0  0  0
 34 35  1  0  0  0
 35 37  1  0  0  0
 37 38  1  0  0  0
 38 39  2  0  0  0
 39 40  1  0  0  0
 40 41  1  0  0  0
 40 42  1  0  0  0
  3  9  1  0  0  0
  9 10  2  0  0  0
 10 11  1  0  0  0
 11 12  1  0  0  0
 11 13  2  0  0  0
 13 14  1  0  0  0
 14 15  2  0  0  0
 15 16  1  0  0  0
 16 17  2  0  0  0
 16  1  1  0  0  0
  8  3  1  0  0  0
 42 37  2  0  0  0
 15  9  1  0  0  0
 27 18  1  0  0  0
 27 22  1  0  0  0
 30 33  1  0  0  0
 35 36  1  0  0  0
M  END
> <minimizedAffinity>
-8.14595

> <CNNscore>
0.1897741407

> <CNNaffinity>
7.0383443832

> <CNN_VS>
1.3356957436

> <CNNaffinity_variance>
0.1963647008

$$$$



 42 47  0  0  0  0  0  0  0  0999 V2000
    6.8601   -3.7132   23.1654 N   0  0  0  0  0  0  0  0  0  0  0  0
    7.0707   -2.3202   22.6506 C   0  0  0  0  0  0  0  0  0  0  0  0
    8.2720   -1.5338   23.0846 C   0  0  0  0  0  0  0  0  0  0  0  0
    9.4197   -0.6310   23.4279 C   0  0  0  0  0  0  0  0  0  0  0  0
   10.4305   -0.6259   24.1021 O   0  0  0  0  0  0  0  0  0  0  0  0
    9.2289    0.6618   22.6915 N   0  0  0  0  0  0  0  0  0  0  0  0
    7.9632    0.5581   21.8932 C   0  0  0  0  0  0  0  0  0  0  0  0
    7.3719   -0.7989   22.1361 C   0  0  0  0  0  0  0  0  0  0  0  0
    9.2628   -2.1405   24.0334 C   0  0  0  0  0  0  0  0  0  0  0  0
   10.4642   -1.3541   24.4674 C   0  0  0  0  0  0  0  0  0  0  0  0
   11.4549   -1.9608   25.4162 C   0  0  0  0  0  0  0  0  0  0  0  0
   12.6563   -1.1744   25.8503 Cl  0  0  0  0  0  0  0  0  0  0  0  0
   11.2444   -3.3539   25.9311 C   0  0  0  0  0  0  0  0  0  0  0  0
   10.0430   -4.1402   25.4971 C   0  0  0  0  0  0  0  0  0  0  0  0
    9.0523   -3.5336   24.5483 C   0  0  0  0  0  0  0  0  0  0  0  0
    7.8509   -4.3199   24.1142 C   0  0  0  0  0  0  0  0  0  0  0  0
    7.6403   -5.7130   24.6290 O   0  0  0  0  0  0  0  0  0  0  0  0
   10.1432    1.8498   22.7443 C   0  0  0  0  0  0  0  0  0  0  0  0
   11.6230    1.6650   22.5831 C   0  0  0  0  0  0  0  0  0  0  0  0
   12.5373    2.8530   22.6359 N   0  0  0  0  0  0  0  0  0  0  0  0
   11.9717    4.2257   22.8499 C   0  0  0  0  0  0  0  0  0  0  0  0
   10.4919    4.4104   23.0112 C   0  0  0  0  0  0  0  0  0  0  0  0
    9.9263    5.7832   23.2253 C   0  0  0  0  0  0  0  0  0  0  0  0
    8.4465    5.9678   23.3865 C   0  0  0  0  0  0  0  0  0  0  0  0
    7.5322    4.7799   23.3337 C   0  0  0  0  0  0  0  0  0  0  0  0
    8.0978    3.4072   23.1197 C   0  0  0  0  0  0  0  0  0  0  0  0
    9.5776    3.2225   22.9584 C   0  0  0  0  0  0  0  0  0  0  0  0
    5.6587   -4.4996   22.7314 C   0  0  0  0  0  0  0  0  0  0  0  0
    3.5923   -7.3846   24.5080 C   0  0  0  0  0  0  0  0  0  0  0  0
    4.4155   -6.6506   23.4914 N   0  0  0  0  0  0  0  0  0  0  0  0
    4.8355   -5.2337   23.7480 C   0  0  0  0  0  0  0  0  0  0  0  0
    4.4323   -4.5507   25.0212 O   0  0  0  0  0  0  0  0  0  0  0  0
    4.6801   -7.0988   22.6558 H   0  0  0  0  0  0  0  0  0  0  0  0
    6.1031   -1.3280   21.5359 C   0  0  0  0  0  0  0  0  0  0  0  0
    5.9102   -1.3045   20.0486 N   0  0  0  0  0  0  0  0  0  0  0  0
    6.2528   -2.0438   19.4960 H   0  0  0  0  0  0  0  0  0  0  0  0
    5.1952   -0.1547   19.4030 C   0  0  0  0  0  0  0  0  0  0  0  0
    5.3365    0.2816   17.9748 C   0  0  0  0  0  0  0  0  0  0  0  0
    4.4421    1.4666   17.7616 N   0  0  0  0  0  0  0  0  0  0  0  0
    3.7480    1.7629   19.0579 N   0  0  0  0  0  0  0  0  0  0  0  0
    2.7617    2.8672   19.2976 C   0  0  0  0  0  0  0  0  0  0  0  0
    4.2135    0.7608   20.0724 C   0  0  0  0  0  0  0  0  0  0  0  0
 29 30  1  0  0  0
 30 31  1  0  0  0
 31 32  2  0  0  0
 31 28  1  0  0  0
 28  1  1  0  0  0
  1  2  1  0  0  0
  3  2  1  0  0  0
  3  4  1  0  0  0
  4  5  2  0  0  0
  4  6  1  0  0  0
  6 18  1  0  0  0
 18 19  2  0  0  0
 19 20  1  0  0  0
 20 21  2  0  0  0
 21 22  1  0  0  0
 22 23  2  0  0  0
 23 24  1  0  0  0
 24 25  2  0  0  0
 25 26  1  0  0  0
 26 27  2  0  0  0
  6  7  1  0  0  0
  7  8  1  0  0  0
  8 34  1  0  0  0
 34 35  1  0  0  0
 35 37  1  0  0  0
 37 38  1  0  0  0
 38 39  2  0  0  0
 39 40  1  0  0  0
 40 41  1  0  0  0
 40 42  1  0  0  0
  3  9  1  0  0  0
  9 10  2  0  0  0
 10 11  1  0  0  0
 11 12  1  0  0  0
 11 13  2  0  0  0
 13 14  1  0  0  0
 14 15  2  0  0  0
 15 16  1  0  0  0
 16 17  2  0  0  0
 16  1  1  0  0  0
  8  3  1  0  0  0
 42 37  2  0  0  0
 15  9  1  0  0  0
 27 18  1  0  0  0
 27 22  1  0  0  0
 30 33  1  0  0  0
 35 36  1  0  0  0
M  END
> <minimizedAffinity>
-8.95917

> <CNNscore>
0.1812355816

> <CNNaffinity>
6.7366242409

> <CNN_VS>
1.2209160328

> <CNNaffinity_variance>
0.2247751504

$$$$



 42 47  0  0  0  0  0  0  0  0999 V2000
   10.8618    1.5409   22.8178 N   0  0  0  0  0  0  0  0  0  0  0  0
    9.4647    1.2814   23.2983 C   0  0  0  0  0  0  0  0  0  0  0  0
    9.1926    0.1387   24.2311 C   0  0  0  0  0  0  0  0  0  0  0  0
    8.7697   -0.9600   25.1605 C   0  0  0  0  0  0  0  0  0  0  0  0
    9.2464   -1.8905   25.7796 O   0  0  0  0  0  0  0  0  0  0  0  0
    7.2889   -0.8455   25.3704 N   0  0  0  0  0  0  0  0  0  0  0  0
    6.7965    0.3242   24.5706 C   0  0  0  0  0  0  0  0  0  0  0  0
    7.9731    0.9324   23.8665 C   0  0  0  0  0  0  0  0  0  0  0  0
   10.3175   -0.7445   24.6835 C   0  0  0  0  0  0  0  0  0  0  0  0
   10.0453   -1.8871   25.6163 C   0  0  0  0  0  0  0  0  0  0  0  0
   11.1702   -2.7703   26.0686 C   0  0  0  0  0  0  0  0  0  0  0  0
   10.8981   -3.9130   27.0015 Cl  0  0  0  0  0  0  0  0  0  0  0  0
   12.5673   -2.5107   25.5881 C   0  0  0  0  0  0  0  0  0  0  0  0
   12.8394   -1.3681   24.6553 C   0  0  0  0  0  0  0  0  0  0  0  0
   11.7145   -0.4849   24.2030 C   0  0  0  0  0  0  0  0  0  0  0  0
   11.9867    0.6578   23.2701 C   0  0  0  0  0  0  0  0  0  0  0  0
   13.3837    0.9173   22.7896 O   0  0  0  0  0  0  0  0  0  0  0  0
    6.4480   -1.7429   26.2292 C   0  0  0  0  0  0  0  0  0  0  0  0
    6.2179   -3.1687   25.8239 C   0  0  0  0  0  0  0  0  0  0  0  0
    5.3771   -4.0662   26.6827 N   0  0  0  0  0  0  0  0  0  0  0  0
    4.7664   -3.5379   27.9468 C   0  0  0  0  0  0  0  0  0  0  0  0
    4.9966   -2.1121   28.3521 C   0  0  0  0  0  0  0  0  0  0  0  0
    4.3859   -1.5838   29.6163 C   0  0  0  0  0  0  0  0  0  0  0  0
    4.6161   -0.1580   30.0215 C   0  0  0  0  0  0  0  0  0  0  0  0
    5.4569    0.7394   29.1627 C   0  0  0  0  0  0  0  0  0  0  0  0
    6.0676    0.2111   27.8986 C   0  0  0  0  0  0  0  0  0  0  0  0
    5.8374   -1.2146   27.4933 C   0  0  0  0  0  0  0  0  0  0  0  0
   11.1339    2.6837   21.8849 C   0  0  0  0  0  0  0  0  0  0  0  0
   10.7253    6.3440   23.3630 C   0  0  0  0  0  0  0  0  0  0  0  0
   10.3829    4.9915   22.8122 N   0  0  0  0  0  0  0  0  0  0  0  0
   11.4763    4.0362   22.4357 C   0  0  0  0  0  0  0  0  0  0  0  0
   12.9123    4.4335   22.6099 O   0  0  0  0  0  0  0  0  0  0  0  0
    9.4404    4.7307   22.6978 H   0  0  0  0  0  0  0  0  0  0  0  0
    7.9365    2.1250   22.9575 C   0  0  0  0  0  0  0  0  0  0  0  0
    6.6609    2.5002   22.2634 N   0  0  0  0  0  0  0  0  0  0  0  0
    6.2446    1.8750   21.6268 H   0  0  0  0  0  0  0  0  0  0  0  0
    6.0194    3.8278   22.5390 C   0  0  0  0  0  0  0  0  0  0  0  0
    5.6270    4.3543   23.8876 C   0  0  0  0  0  0  0  0  0  0  0  0
    5.0228    5.7139   23.6965 N   0  0  0  0  0  0  0  0  0  0  0  0
    5.0417    6.0275   22.2298 N   0  0  0  0  0  0  0  0  0  0  0  0
    4.5338    7.2859   21.5907 C   0  0  0  0  0  0  0  0  0  0  0  0
    5.6576    4.8618   21.5144 C   0  0  0  0  0  0  0  0  0  0  0  0
 29 30  1  0  0  0
 30 31  1  0  0  0
 31 32  2  0  0  0
 31 28  1  0  0  0
 28  1  1  0  0  0
  1  2  1  0  0  0
  3  2  1  0  0  0
  3  4  1  0  0  0
  4  5  2  0  0  0
  4  6  1  0  0  0
  6 18  1  0  0  0
 18 19  2  0  0  0
 19 20  1  0  0  0
 20 21  2  0  0  0
 21 22  1  0  0  0
 22 23  2  0  0  0
 23 24  1  0  0  0
 24 25  2  0  0  0
 25 26  1  0  0  0
 26 27  2  0  0  0
  6  7  1  0  0  0
  7  8  1  0  0  0
  8 34  1  0  0  0
 34 35  1  0  0  0
 35 37  1  0  0  0
 37 38  1  0  0  0
 38 39  2  0  0  0
 39 40  1  0  0  0
 40 41  1  0  0  0
 40 42  1  0  0  0
  3  9  1  0  0  0
  9 10  2  0  0  0
 10 11  1  0  0  0
 11 12  1  0  0  0
 11 13  2  0  0  0
 13 14  1  0  0  0
 14 15  2  0  0  0
 15 16  1  0  0  0
 16 17  2  0  0  0
 16  1  1  0  0  0
  8  3  1  0  0  0
 42 37  2  0  0  0
 15  9  1  0  0  0
 27 18  1  0  0  0
 27 22  1  0  0  0
 30 33  1  0  0  0
 35 36  1  0  0  0
M  END
> <minimizedAffinity>
-7.70232

> <CNNscore>
0.1701122820

> <CNNaffinity>
6.8419890404

> <CNN_VS>
1.1639063358

> <CNNaffinity_variance>
0.2299441099

$$$$
