


 37 42  0  0  0  0  0  0  0  0999 V2000
    7.4487   -3.3115   23.3955 C   0  0  0  0  0  0  0  0  0  0  0  0
    7.6315   -2.0170   22.6598 C   0  0  0  0  0  0  0  0  0  0  0  0
    6.5260   -1.7685   21.6769 C   0  0  0  0  0  0  0  0  0  0  0  0
    6.7965   -0.4595   20.9962 N   0  0  0  0  0  0  0  0  0  0  0  0
    8.0692    0.1009   21.5585 C   0  0  0  0  0  0  0  0  0  0  0  0
    8.7128    1.3966   21.1622 O   0  0  0  0  0  0  0  0  0  0  0  0
    8.5852   -0.8617   22.5867 C   0  0  0  0  0  0  0  0  0  0  0  0
    9.4447    0.3539   22.4034 C   0  0  0  0  0  0  0  0  0  0  0  0
   10.6950    0.5179   23.2157 N   0  0  0  0  0  0  0  0  0  0  0  0
   11.0858   -0.5337   24.2113 C   0  0  0  0  0  0  0  0  0  0  0  0
   12.3361   -0.3697   25.0237 O   0  0  0  0  0  0  0  0  0  0  0  0
   10.2264   -1.7493   24.3947 C   0  0  0  0  0  0  0  0  0  0  0  0
   10.6172   -2.8009   25.3903 C   0  0  0  0  0  0  0  0  0  0  0  0
    9.7578   -4.0165   25.5736 C   0  0  0  0  0  0  0  0  0  0  0  0
    8.5075   -4.1805   24.7613 C   0  0  0  0  0  0  0  0  0  0  0  0
    7.6480   -5.3962   24.9446 F   0  0  0  0  0  0  0  0  0  0  0  0
    8.1166   -3.1289   23.7656 C   0  0  0  0  0  0  0  0  0  0  0  0
    8.9761   -1.9133   23.5823 C   0  0  0  0  0  0  0  0  0  0  0  0
    5.9440    0.1772   19.9390 C   0  0  0  0  0  0  0  0  0  0  0  0
    6.2769   -0.0173   18.4894 C   0  0  0  0  0  0  0  0  0  0  0  0
    5.4244    0.6194   17.4322 N   0  0  0  0  0  0  0  0  0  0  0  0
    4.2391    1.4508   17.8245 C   0  0  0  0  0  0  0  0  0  0  0  0
    3.9063    1.6453   19.2741 C   0  0  0  0  0  0  0  0  0  0  0  0
    2.7209    2.4767   19.6665 C   0  0  0  0  0  0  0  0  0  0  0  0
    2.3882    2.6712   21.1161 C   0  0  0  0  0  0  0  0  0  0  0  0
    3.2406    2.0345   22.1733 C   0  0  0  0  0  0  0  0  0  0  0  0
    4.4259    1.2031   21.7809 C   0  0  0  0  0  0  0  0  0  0  0  0
    4.7587    1.0086   20.3314 C   0  0  0  0  0  0  0  0  0  0  0  0
   11.5544    1.7336   23.0324 C   0  0  0  0  0  0  0  0  0  0  0  0
   10.9241    3.0922   22.9495 C   0  0  0  0  0  0  0  0  0  0  0  0
   11.7407    4.2726   22.5138 C   0  0  0  0  0  0  0  0  0  0  0  0
   11.1104    5.6312   22.4310 C   0  0  0  0  0  0  0  0  0  0  0  0
   11.9270    6.8116   21.9953 O   0  0  0  0  0  0  0  0  0  0  0  0
    9.6633    5.8094   22.7837 N   0  0  0  0  0  0  0  0  0  0  0  0
    8.8467    4.6290   23.2194 C   0  0  0  0  0  0  0  0  0  0  0  0
    9.4771    3.2704   23.3023 N   0  0  0  0  0  0  0  0  0  0  0  0
    9.2496    6.7011   22.7293 H   0  0  0  0  0  0  0  0  0  0  0  0
  2  1  1  0  0  0
  2  3  1  0  0  0
  3  4  1  0  0  0
  4 19  1  0  0  0
 19 20  2  0  0  0
 20 21  1  0  0  0
 21 22  2  0  0  0
 22 23  1  0  0  0
 23 24  2  0  0  0
 24 25  1  0  0  0
 25 26  2  0  0  0
 26 27  1  0  0  0
 27 28  2  0  0  0
  4  5  1  0  0  0
  5  6  2  0  0  0
  5  7  1  0  0  0
  7  8  1  0  0  0
  8  9  1  0  0  0
  9 29  1  0  0  0
 29 30  1  0  0  0
 30 31  2  0  0  0
 31 32  1  0  0  0
 32 33  2  0  0  0
 32 34  1  0  0  0
 34 35  1  0  0  0
 35 36  2  0  0  0
  9 10  1  0  0  0
 10 11  2  0  0  0
 10 12  1  0  0  0
 12 13  2  0  0  0
 13 14  1  0  0  0
 14 15  2  0  0  0
 15 16  1  0  0  0
 15 17  1  0  0  0
 17 18  2  0  0  0
  7  2  1  0  0  0
 36 30  1  0  0  0
 18 12  1  0  0  0
 28 19  1  0  0  0
 18  7  1  0  0  0
 28 23  1  0  0  0
 34 37  1  0  0  0
M  END
> <minimizedAffinity>
-10.21233

> <CNNscore>
0.4594287574

> <CNNaffinity>
6.8536367416

> <CNN_VS>
3.1487576962

> <CNNaffinity_variance>
0.0703206360

$$$$



 37 42  0  0  0  0  0  0  0  0999 V2000
   10.8536   -3.0527   26.4143 C   0  0  0  0  0  0  0  0  0  0  0  0
    9.4268   -2.7912   26.0320 C   0  0  0  0  0  0  0  0  0  0  0  0
    8.4739   -3.6779   26.7774 C   0  0  0  0  0  0  0  0  0  0  0  0
    7.0821   -3.3431   26.3292 N   0  0  0  0  0  0  0  0  0  0  0  0
    7.1750   -2.2494   25.3068 C   0  0  0  0  0  0  0  0  0  0  0  0
    6.0212   -1.6093   24.5933 O   0  0  0  0  0  0  0  0  0  0  0  0
    8.6241   -1.9084   25.1231 C   0  0  0  0  0  0  0  0  0  0  0  0
    7.6937   -1.0978   24.2702 C   0  0  0  0  0  0  0  0  0  0  0  0
    8.2435   -0.0567   23.3408 N   0  0  0  0  0  0  0  0  0  0  0  0
    9.7237    0.1739   23.2643 C   0  0  0  0  0  0  0  0  0  0  0  0
   10.2735    1.2150   22.3349 O   0  0  0  0  0  0  0  0  0  0  0  0
   10.6542   -0.6367   24.1171 C   0  0  0  0  0  0  0  0  0  0  0  0
   12.1343   -0.4061   24.0406 C   0  0  0  0  0  0  0  0  0  0  0  0
   13.0647   -1.2167   24.8934 C   0  0  0  0  0  0  0  0  0  0  0  0
   12.5149   -2.2578   25.8228 C   0  0  0  0  0  0  0  0  0  0  0  0
   13.4453   -3.0683   26.6757 F   0  0  0  0  0  0  0  0  0  0  0  0
   11.0347   -2.4884   25.8994 C   0  0  0  0  0  0  0  0  0  0  0  0
   10.1043   -1.6778   25.0465 C   0  0  0  0  0  0  0  0  0  0  0  0
    5.8193   -3.9885   26.8176 C   0  0  0  0  0  0  0  0  0  0  0  0
    5.1029   -4.9836   25.9537 C   0  0  0  0  0  0  0  0  0  0  0  0
    3.8401   -5.6291   26.4421 N   0  0  0  0  0  0  0  0  0  0  0  0
    3.2936   -5.2793   27.7945 C   0  0  0  0  0  0  0  0  0  0  0  0
    4.0100   -4.2841   28.6585 C   0  0  0  0  0  0  0  0  0  0  0  0
    3.4635   -3.9344   30.0110 C   0  0  0  0  0  0  0  0  0  0  0  0
    4.1799   -2.9392   30.8749 C   0  0  0  0  0  0  0  0  0  0  0  0
    5.4427   -2.2939   30.3864 C   0  0  0  0  0  0  0  0  0  0  0  0
    5.9892   -2.6436   29.0340 C   0  0  0  0  0  0  0  0  0  0  0  0
    5.2729   -3.6387   28.1701 C   0  0  0  0  0  0  0  0  0  0  0  0
    7.3131    0.7539   22.4879 C   0  0  0  0  0  0  0  0  0  0  0  0
    6.6257    0.1191   21.3156 C   0  0  0  0  0  0  0  0  0  0  0  0
    6.7028    0.7622   19.9626 C   0  0  0  0  0  0  0  0  0  0  0  0
    6.0154    0.1275   18.7902 C   0  0  0  0  0  0  0  0  0  0  0  0
    6.0925    0.7705   17.4372 O   0  0  0  0  0  0  0  0  0  0  0  0
    5.2507   -1.1504   18.9708 N   0  0  0  0  0  0  0  0  0  0  0  0
    5.1736   -1.7934   20.3238 C   0  0  0  0  0  0  0  0  0  0  0  0
    5.8611   -1.1586   21.4962 N   0  0  0  0  0  0  0  0  0  0  0  0
    4.7995   -1.5670   18.2013 H   0  0  0  0  0  0  0  0  0  0  0  0
  2  1  1  0  0  0
  2  3  1  0  0  0
  3  4  1  0  0  0
  4 19  1  0  0  0
 19 20  2  0  0  0
 20 21  1  0  0  0
 21 22  2  0  0  0
 22 23  1  0  0  0
 23 24  2  0  0  0
 24 25  1  0  0  0
 25 26  2  0  0  0
 26 27  1  0  0  0
 27 28  2  0  0  0
  4  5  1  0  0  0
  5  6  2  0  0  0
  5  7  1  0  0  0
  7  8  1  0  0  0
  8  9  1  0  0  0
  9 29  1  0  0  0
 29 30  1  0  0  0
 30 31  2  0  0  0
 31 32  1  0  0  0
 32 33  2  0  0  0
 32 34  1  0  0  0
 34 35  1  0  0  0
 35 36  2  0  0  0
  9 10  1  0  0  0
 10 11  2  0  0  0
 10 12  1  0  0  0
 12 13  2  0  0  0
 13 14  1  0  0  0
 14 15  2  0  0  0
 15 16  1  0  0  0
 15 17  1  0  0  0
 17 18  2  0  0  0
  7  2  1  0  0  0
 36 30  1  0  0  0
 18 12  1  0  0  0
 28 19  1  0  0  0
 18  7  1  0  0  0
 28 23  1  0  0  0
 34 37  1  0  0  0
M  END
> <minimizedAffinity>
-9.17022

> <CNNscore>
0.3625981212

> <CNNaffinity>
6.6784963608

> <CNN_VS>
2.4216101170

> <CNNaffinity_variance>
0.1172345877

$$$$



 37 42  0  0  0  0  0  0  0  0999 V2000
   10.7232   -3.7136   25.5890 C   0  0  0  0  0  0  0  0  0  0  0  0
    9.5253   -3.3791   24.7504 C   0  0  0  0  0  0  0  0  0  0  0  0
    8.4671   -4.4389   24.8341 C   0  0  0  0  0  0  0  0  0  0  0  0
    7.3180   -4.0161   23.9677 N   0  0  0  0  0  0  0  0  0  0  0  0
    7.6660   -2.6950   23.3484 C   0  0  0  0  0  0  0  0  0  0  0  0
    6.8016   -1.9061   22.4101 O   0  0  0  0  0  0  0  0  0  0  0  0
    9.0302   -2.3012   23.8322 C   0  0  0  0  0  0  0  0  0  0  0  0
    8.4047   -1.3092   22.8970 C   0  0  0  0  0  0  0  0  0  0  0  0
    9.1439   -0.0575   22.5274 N   0  0  0  0  0  0  0  0  0  0  0  0
   10.5087    0.2023   23.0930 C   0  0  0  0  0  0  0  0  0  0  0  0
   11.2479    1.4540   22.7234 O   0  0  0  0  0  0  0  0  0  0  0  0
   11.1343   -0.7898   24.0282 C   0  0  0  0  0  0  0  0  0  0  0  0
   12.4990   -0.5300   24.5938 C   0  0  0  0  0  0  0  0  0  0  0  0
   13.1245   -1.5221   25.5290 C   0  0  0  0  0  0  0  0  0  0  0  0
   12.3853   -2.7738   25.8986 C   0  0  0  0  0  0  0  0  0  0  0  0
   13.0109   -3.7659   26.8338 F   0  0  0  0  0  0  0  0  0  0  0  0
   11.0205   -3.0336   25.3330 C   0  0  0  0  0  0  0  0  0  0  0  0
   10.3950   -2.0415   24.3978 C   0  0  0  0  0  0  0  0  0  0  0  0
    6.0445   -4.7803   23.7573 C   0  0  0  0  0  0  0  0  0  0  0  0
    5.7384   -5.3724   22.4137 C   0  0  0  0  0  0  0  0  0  0  0  0
    4.4649   -6.1366   22.2033 N   0  0  0  0  0  0  0  0  0  0  0  0
    3.4976   -6.3086   23.3368 C   0  0  0  0  0  0  0  0  0  0  0  0
    3.8037   -5.7164   24.6805 C   0  0  0  0  0  0  0  0  0  0  0  0
    2.8363   -5.8885   25.8140 C   0  0  0  0  0  0  0  0  0  0  0  0
    3.1426   -5.2963   27.1577 C   0  0  0  0  0  0  0  0  0  0  0  0
    4.4161   -4.5322   27.3680 C   0  0  0  0  0  0  0  0  0  0  0  0
    5.3834   -4.3602   26.2345 C   0  0  0  0  0  0  0  0  0  0  0  0
    5.0772   -4.9523   24.8909 C   0  0  0  0  0  0  0  0  0  0  0  0
    8.5184    0.9346   21.5922 C   0  0  0  0  0  0  0  0  0  0  0  0
    7.1783    0.6484   20.9821 C   0  0  0  0  0  0  0  0  0  0  0  0
    7.0911   -0.0466   19.6557 C   0  0  0  0  0  0  0  0  0  0  0  0
    5.7511   -0.3327   19.0455 C   0  0  0  0  0  0  0  0  0  0  0  0
    5.6639   -1.0277   17.7191 O   0  0  0  0  0  0  0  0  0  0  0  0
    4.4981    0.0761   19.7618 N   0  0  0  0  0  0  0  0  0  0  0  0
    4.5853    0.7711   21.0882 C   0  0  0  0  0  0  0  0  0  0  0  0
    5.9254    1.0573   21.6984 N   0  0  0  0  0  0  0  0  0  0  0  0
    3.6185   -0.1117   19.3614 H   0  0  0  0  0  0  0  0  0  0  0  0
  2  1  1  0  0  0
  2  3  1  0  0  0
  3  4  1  0  0  0
  4 19  1  0  0  0
 19 20  2  0  0  0
 20 21  1  0  0  0
 21 22  2  0  0  0
 22 23  1  0  0  0
 23 24  2  0  0  0
 24 25  1  0  0  0
 25 26  2  0  0  0
 26 27  1  0  0  0
 27 28  2  0  0  0
  4  5  1  0  0  0
  5  6  2  0  0  0
  5  7  1  0  0  0
  7  8  1  0  0  0
  8  9  1  0  0  0
  9 29  1  0  0  0
 29 30  1  0  0  0
 30 31  2  0  0  0
 31 32  1  0  0  0
 32 33  2  0  0  0
 32 34  1  0  0  0
 34 35  1  0  0  0
 35 36  2  0  0  0
  9 10  1  0  0  0
 10 11  2  0  0  0
 10 12  1  0  0  0
 12 13  2  0  0  0
 13 14  1  0  0  0
 14 15  2  0  0  0
 15 16  1  0  0  0
 15 17  1  0  0  0
 17 18  2  0  0  0
  7  2  1  0  0  0
 36 30  1  0  0  0
 18 12  1  0  0  0
 28 19  1  0  0  0
 18  7  1  0  0  0
 28 23  1  0  0  0
 34 37  1  0  0  0
M  END
> <minimizedAffinity>
-10.10112

> <CNNscore>
0.3261792958

> <CNNaffinity>
6.5979208946

> <CNN_VS>
2.1521050930

> <CNNaffinity_variance>
0.2143923938

$$$$



 37 42  0  0  0  0  0  0  0  0999 V2000
   10.9703   -3.3696   26.1306 C   0  0  0  0  0  0  0  0  0  0  0  0
    9.5829   -2.8926   25.8180 C   0  0  0  0  0  0  0  0  0  0  0  0
    8.5345   -3.7998   26.3906 C   0  0  0  0  0  0  0  0  0  0  0  0
    7.1903   -3.2422   26.0270 N   0  0  0  0  0  0  0  0  0  0  0  0
    7.4080   -1.9904   25.2297 C   0  0  0  0  0  0  0  0  0  0  0  0
    6.3352   -1.1094   24.6613 O   0  0  0  0  0  0  0  0  0  0  0  0
    8.8867   -1.7743   25.1005 C   0  0  0  0  0  0  0  0  0  0  0  0
    8.0554   -0.7239   24.4256 C   0  0  0  0  0  0  0  0  0  0  0  0
    8.7211    0.4111   23.7054 N   0  0  0  0  0  0  0  0  0  0  0  0
   10.2179    0.4958   23.6602 C   0  0  0  0  0  0  0  0  0  0  0  0
   10.8836    1.6308   22.9401 O   0  0  0  0  0  0  0  0  0  0  0  0
   11.0493   -0.5546   24.3352 C   0  0  0  0  0  0  0  0  0  0  0  0
   12.5462   -0.4700   24.2900 C   0  0  0  0  0  0  0  0  0  0  0  0
   13.3775   -1.5204   24.9650 C   0  0  0  0  0  0  0  0  0  0  0  0
   12.7118   -2.6554   25.6852 C   0  0  0  0  0  0  0  0  0  0  0  0
   13.5432   -3.7058   26.3602 F   0  0  0  0  0  0  0  0  0  0  0  0
   11.2149   -2.7401   25.7304 C   0  0  0  0  0  0  0  0  0  0  0  0
   10.3837   -1.6897   25.0554 C   0  0  0  0  0  0  0  0  0  0  0  0
    5.8616   -3.8327   26.3958 C   0  0  0  0  0  0  0  0  0  0  0  0
    5.0933   -4.6373   25.3899 C   0  0  0  0  0  0  0  0  0  0  0  0
    3.7646   -5.2278   25.7588 N   0  0  0  0  0  0  0  0  0  0  0  0
    3.2045   -5.0136   27.1336 C   0  0  0  0  0  0  0  0  0  0  0  0
    3.9729   -4.2089   28.1396 C   0  0  0  0  0  0  0  0  0  0  0  0
    3.4127   -3.9948   29.5146 C   0  0  0  0  0  0  0  0  0  0  0  0
    4.1812   -3.1901   30.5205 C   0  0  0  0  0  0  0  0  0  0  0  0
    5.5097   -2.5996   30.1516 C   0  0  0  0  0  0  0  0  0  0  0  0
    6.0699   -2.8138   28.7767 C   0  0  0  0  0  0  0  0  0  0  0  0
    5.3015   -3.6184   27.7708 C   0  0  0  0  0  0  0  0  0  0  0  0
    7.8897    1.4615   23.0304 C   0  0  0  0  0  0  0  0  0  0  0  0
    7.6565    2.7811   23.7043 C   0  0  0  0  0  0  0  0  0  0  0  0
    8.2227    4.0369   23.1107 C   0  0  0  0  0  0  0  0  0  0  0  0
    7.9895    5.3565   23.7846 C   0  0  0  0  0  0  0  0  0  0  0  0
    8.5557    6.6123   23.1910 O   0  0  0  0  0  0  0  0  0  0  0  0
    7.1901    5.4203   25.0523 N   0  0  0  0  0  0  0  0  0  0  0  0
    6.6240    4.1645   25.6460 C   0  0  0  0  0  0  0  0  0  0  0  0
    6.8572    2.8449   24.9720 N   0  0  0  0  0  0  0  0  0  0  0  0
    7.0371    6.2864   25.4947 H   0  0  0  0  0  0  0  0  0  0  0  0
  2  1  1  0  0  0
  2  3  1  0  0  0
  3  4  1  0  0  0
  4 19  1  0  0  0
 19 20  2  0  0  0
 20 21  1  0  0  0
 21 22  2  0  0  0
 22 23  1  0  0  0
 23 24  2  0  0  0
 24 25  1  0  0  0
 25 26  2  0  0  0
 26 27  1  0  0  0
 27 28  2  0  0  0
  4  5  1  0  0  0
  5  6  2  0  0  0
  5  7  1  0  0  0
  7  8  1  0  0  0
  8  9  1  0  0  0
  9 29  1  0  0  0
 29 30  1  0  0  0
 30 31  2  0  0  0
 31 32  1  0  0  0
 32 33  2  0  0  0
 32 34  1  0  0  0
 34 35  1  0  0  0
 35 36  2  0  0  0
  9 10  1  0  0  0
 10 11  2  0  0  0
 10 12  1  0  0  0
 12 13  2  0  0  0
 13 14  1  0  0  0
 14 15  2  0  0  0
 15 16  1  0  0  0
 15 17  1  0  0  0
 17 18  2  0  0  0
  7  2  1  0  0  0
 36 30  1  0  0  0
 18 12  1  0  0  0
 28 19  1  0  0  0
 18  7  1  0  0  0
 28 23  1  0  0  0
 34 37  1  0  0  0
M  END
> <minimizedAffinity>
-8.31379

> <CNNscore>
0.3185377419

> <CNNaffinity>
6.6700606346

> <CNN_VS>
2.1246659756

> <CNNaffinity_variance>
0.2277069539

$$$$



 37 42  0  0  0  0  0  0  0  0999 V2000
    9.1926   -0.9107   23.6627 C   0  0  0  0  0  0  0  0  0  0  0  0
    8.0203   -1.3190   22.8205 C   0  0  0  0  0  0  0  0  0  0  0  0
    7.6003   -0.2312   21.8770 C   0  0  0  0  0  0  0  0  0  0  0  0
    6.4295   -0.7318   21.0842 N   0  0  0  0  0  0  0  0  0  0  0  0
    6.1258   -2.1289   21.5378 C   0  0  0  0  0  0  0  0  0  0  0  0
    5.0312   -3.0087   21.0108 O   0  0  0  0  0  0  0  0  0  0  0  0
    7.1090   -2.4919   22.6109 C   0  0  0  0  0  0  0  0  0  0  0  0
    6.1256   -3.5786   22.2917 C   0  0  0  0  0  0  0  0  0  0  0  0
    6.1867   -4.8850   23.0262 N   0  0  0  0  0  0  0  0  0  0  0  0
    7.2313   -5.1047   24.0801 C   0  0  0  0  0  0  0  0  0  0  0  0
    7.2924   -6.4111   24.8146 O   0  0  0  0  0  0  0  0  0  0  0  0
    8.2147   -4.0179   24.3994 C   0  0  0  0  0  0  0  0  0  0  0  0
    9.2593   -4.2376   25.4532 C   0  0  0  0  0  0  0  0  0  0  0  0
   10.2427   -3.1509   25.7725 C   0  0  0  0  0  0  0  0  0  0  0  0
   10.1815   -1.8445   25.0380 C   0  0  0  0  0  0  0  0  0  0  0  0
   11.1650   -0.7578   25.3573 F   0  0  0  0  0  0  0  0  0  0  0  0
    9.1370   -1.6248   23.9841 C   0  0  0  0  0  0  0  0  0  0  0  0
    8.1536   -2.7115   23.6648 C   0  0  0  0  0  0  0  0  0  0  0  0
    5.6918    0.0309   20.0239 C   0  0  0  0  0  0  0  0  0  0  0  0
    6.1340   -0.0553   18.5932 C   0  0  0  0  0  0  0  0  0  0  0  0
    5.3963    0.7074   17.5330 N   0  0  0  0  0  0  0  0  0  0  0  0
    4.2164    1.5562   17.9035 C   0  0  0  0  0  0  0  0  0  0  0  0
    3.7741    1.6423   19.3342 C   0  0  0  0  0  0  0  0  0  0  0  0
    2.5941    2.4912   19.7047 C   0  0  0  0  0  0  0  0  0  0  0  0
    2.1520    2.5772   21.1355 C   0  0  0  0  0  0  0  0  0  0  0  0
    2.8897    1.8146   22.1956 C   0  0  0  0  0  0  0  0  0  0  0  0
    4.0696    0.9658   21.8251 C   0  0  0  0  0  0  0  0  0  0  0  0
    4.5118    0.8797   20.3945 C   0  0  0  0  0  0  0  0  0  0  0  0
    5.2033   -5.9717   22.7069 C   0  0  0  0  0  0  0  0  0  0  0  0
    3.9187   -6.0702   23.4751 C   0  0  0  0  0  0  0  0  0  0  0  0
    3.8498   -5.5718   24.8882 C   0  0  0  0  0  0  0  0  0  0  0  0
    2.5653   -5.6703   25.6564 C   0  0  0  0  0  0  0  0  0  0  0  0
    2.4964   -5.1720   27.0695 O   0  0  0  0  0  0  0  0  0  0  0  0
    1.3496   -6.2672   25.0115 N   0  0  0  0  0  0  0  0  0  0  0  0
    1.4185   -6.7656   23.5984 C   0  0  0  0  0  0  0  0  0  0  0  0
    2.7031   -6.6671   22.8302 N   0  0  0  0  0  0  0  0  0  0  0  0
    0.5065   -6.3319   25.5157 H   0  0  0  0  0  0  0  0  0  0  0  0
  2  1  1  0  0  0
  2  3  1  0  0  0
  3  4  1  0  0  0
  4 19  1  0  0  0
 19 20  2  0  0  0
 20 21  1  0  0  0
 21 22  2  0  0  0
 22 23  1  0  0  0
 23 24  2  0  0  0
 24 25  1  0  0  0
 25 26  2  0  0  0
 26 27  1  0  0  0
 27 28  2  0  0  0
  4  5  1  0  0  0
  5  6  2  0  0  0
  5  7  1  0  0  0
  7  8  1  0  0  0
  8  9  1  0  0  0
  9 29  1  0  0  0
 29 30  1  0  0  0
 30 31  2  0  0  0
 31 32  1  0  0  0
 32 33  2  0  0  0
 32 34  1  0  0  0
 34 35  1  0  0  0
 35 36  2  0  0  0
  9 10  1  0  0  0
 10 11  2  0  0  0
 10 12  1  0  0  0
 12 13  2  0  0  0
 13 14  1  0  0  0
 14 15  2  0  0  0
 15 16  1  0  0  0
 15 17  1  0  0  0
 17 18  2  0  0  0
  7  2  1  0  0  0
 36 30  1  0  0  0
 18 12  1  0  0  0
 28 19  1  0  0  0
 18  7  1  0  0  0
 28 23  1  0  0  0
 34 37  1  0  0  0
M  END
> <minimizedAffinity>
-8.40157

> <CNNscore>
0.3070876598

> <CNNaffinity>
6.4395651817

> <CNN_VS>
1.9775110483

> <CNNaffinity_variance>
0.0713711828

$$$$



 37 42  0  0  0  0  0  0  0  0999 V2000
   10.7742   -2.6737   24.2458 C   0  0  0  0  0  0  0  0  0  0  0  0
    9.3300   -2.4789   23.8901 C   0  0  0  0  0  0  0  0  0  0  0  0
    8.5171   -3.7135   24.1452 C   0  0  0  0  0  0  0  0  0  0  0  0
    7.0969   -3.4208   23.7612 N   0  0  0  0  0  0  0  0  0  0  0  0
    7.0322   -2.0055   23.2687 C   0  0  0  0  0  0  0  0  0  0  0  0
    5.8031   -1.2967   22.7820 O   0  0  0  0  0  0  0  0  0  0  0  0
    8.4123   -1.4233   23.3484 C   0  0  0  0  0  0  0  0  0  0  0  0
    7.3791   -0.4733   22.8193 C   0  0  0  0  0  0  0  0  0  0  0  0
    7.7725    0.9198   22.4262 N   0  0  0  0  0  0  0  0  0  0  0  0
    9.1990    1.3629   22.5622 C   0  0  0  0  0  0  0  0  0  0  0  0
    9.5924    2.7560   22.1692 O   0  0  0  0  0  0  0  0  0  0  0  0
   10.2323    0.4129   23.0914 C   0  0  0  0  0  0  0  0  0  0  0  0
   11.6588    0.8561   23.2274 C   0  0  0  0  0  0  0  0  0  0  0  0
   12.6920   -0.0939   23.7565 C   0  0  0  0  0  0  0  0  0  0  0  0
   12.2987   -1.4870   24.1496 C   0  0  0  0  0  0  0  0  0  0  0  0
   13.3320   -2.4370   24.6787 F   0  0  0  0  0  0  0  0  0  0  0  0
   10.8722   -1.9302   24.0135 C   0  0  0  0  0  0  0  0  0  0  0  0
    9.8390   -0.9802   23.4844 C   0  0  0  0  0  0  0  0  0  0  0  0
    5.9439   -4.3759   23.8535 C   0  0  0  0  0  0  0  0  0  0  0  0
    5.4649   -5.0940   22.6269 C   0  0  0  0  0  0  0  0  0  0  0  0
    4.3119   -6.0490   22.7191 N   0  0  0  0  0  0  0  0  0  0  0  0
    3.6380   -6.2858   24.0381 C   0  0  0  0  0  0  0  0  0  0  0  0
    4.1170   -5.5677   25.2648 C   0  0  0  0  0  0  0  0  0  0  0  0
    3.4430   -5.8045   26.5838 C   0  0  0  0  0  0  0  0  0  0  0  0
    3.9221   -5.0863   27.8104 C   0  0  0  0  0  0  0  0  0  0  0  0
    5.0751   -4.1313   27.7181 C   0  0  0  0  0  0  0  0  0  0  0  0
    5.7490   -3.8945   26.3991 C   0  0  0  0  0  0  0  0  0  0  0  0
    5.2700   -4.6126   25.1725 C   0  0  0  0  0  0  0  0  0  0  0  0
    6.7392    1.8698   21.8971 C   0  0  0  0  0  0  0  0  0  0  0  0
    5.9167    1.4930   20.7006 C   0  0  0  0  0  0  0  0  0  0  0  0
    6.3409    0.3481   19.8292 C   0  0  0  0  0  0  0  0  0  0  0  0
    5.5184   -0.0286   18.6328 C   0  0  0  0  0  0  0  0  0  0  0  0
    5.9426   -1.1735   17.7614 O   0  0  0  0  0  0  0  0  0  0  0  0
    4.2716    0.7395   18.3078 N   0  0  0  0  0  0  0  0  0  0  0  0
    3.8474    1.8844   19.1792 C   0  0  0  0  0  0  0  0  0  0  0  0
    4.6700    2.2611   20.3756 N   0  0  0  0  0  0  0  0  0  0  0  0
    3.7317    0.4922   17.5225 H   0  0  0  0  0  0  0  0  0  0  0  0
  2  1  1  0  0  0
  2  3  1  0  0  0
  3  4  1  0  0  0
  4 19  1  0  0  0
 19 20  2  0  0  0
 20 21  1  0  0  0
 21 22  2  0  0  0
 22 23  1  0  0  0
 23 24  2  0  0  0
 24 25  1  0  0  0
 25 26  2  0  0  0
 26 27  1  0  0  0
 27 28  2  0  0  0
  4  5  1  0  0  0
  5  6  2  0  0  0
  5  7  1  0  0  0
  7  8  1  0  0  0
  8  9  1  0  0  0
  9 29  1  0  0  0
 29 30  1  0  0  0
 30 31  2  0  0  0
 31 32  1  0  0  0
 32 33  2  0  0  0
 32 34  1  0  0  0
 34 35  1  0  0  0
 35 36  2  0  0  0
  9 10  1  0  0  0
 10 11  2  0  0  0
 10 12  1  0  0  0
 12 13  2  0  0  0
 13 14  1  0  0  0
 14 15  2  0  0  0
 15 16  1  0  0  0
 15 17  1  0  0  0
 17 18  2  0  0  0
  7  2  1  0  0  0
 36 30  1  0  0  0
 18 12  1  0  0  0
 28 19  1  0  0  0
 18  7  1  0  0  0
 28 23  1  0  0  0
 34 37  1  0  0  0
M  END
> <minimizedAffinity>
-9.71211

> <CNNscore>
0.2977118492

> <CNNaffinity>
6.7104902267

> <CNN_VS>
1.9977924824

> <CNNaffinity_variance>
0.0880546719

$$$$



 37 42  0  0  0  0  0  0  0  0999 V2000
   11.0092    0.0286   22.5644 C   0  0  0  0  0  0  0  0  0  0  0  0
    9.6111   -0.4653   22.3377 C   0  0  0  0  0  0  0  0  0  0  0  0
    8.9236    0.2815   21.2333 C   0  0  0  0  0  0  0  0  0  0  0  0
    7.5412   -0.2813   21.0838 N   0  0  0  0  0  0  0  0  0  0  0  0
    7.3744   -1.3759   22.0958 C   0  0  0  0  0  0  0  0  0  0  0  0
    6.1443   -2.2103   22.2974 O   0  0  0  0  0  0  0  0  0  0  0  0
    8.6537   -1.4896   22.8707 C   0  0  0  0  0  0  0  0  0  0  0  0
    7.5935   -2.4610   23.2976 C   0  0  0  0  0  0  0  0  0  0  0  0
    7.8672   -3.4291   24.4102 N   0  0  0  0  0  0  0  0  0  0  0  0
    9.2013   -3.4258   25.0960 C   0  0  0  0  0  0  0  0  0  0  0  0
    9.4750   -4.3938   26.2086 O   0  0  0  0  0  0  0  0  0  0  0  0
   10.2616   -2.4543   24.6691 C   0  0  0  0  0  0  0  0  0  0  0  0
   11.5956   -2.4510   25.3549 C   0  0  0  0  0  0  0  0  0  0  0  0
   12.6558   -1.4796   24.9281 C   0  0  0  0  0  0  0  0  0  0  0  0
   12.3820   -0.5115   23.8155 C   0  0  0  0  0  0  0  0  0  0  0  0
   13.4424    0.4599   23.3887 F   0  0  0  0  0  0  0  0  0  0  0  0
   11.0480   -0.5149   23.1297 C   0  0  0  0  0  0  0  0  0  0  0  0
    9.9878   -1.4863   23.5565 C   0  0  0  0  0  0  0  0  0  0  0  0
    6.5072    0.1710   20.0958 C   0  0  0  0  0  0  0  0  0  0  0  0
    6.4435   -0.4582   18.7358 C   0  0  0  0  0  0  0  0  0  0  0  0
    5.4094   -0.0059   17.7478 N   0  0  0  0  0  0  0  0  0  0  0  0
    4.4391    1.0758   18.1199 C   0  0  0  0  0  0  0  0  0  0  0  0
    4.5028    1.7050   19.4801 C   0  0  0  0  0  0  0  0  0  0  0  0
    3.5324    2.7867   19.8522 C   0  0  0  0  0  0  0  0  0  0  0  0
    3.5962    3.4160   21.2124 C   0  0  0  0  0  0  0  0  0  0  0  0
    4.6303    2.9636   22.2003 C   0  0  0  0  0  0  0  0  0  0  0  0
    5.6006    1.8819   21.8281 C   0  0  0  0  0  0  0  0  0  0  0  0
    5.5369    1.2527   20.4681 C   0  0  0  0  0  0  0  0  0  0  0  0
    6.8069   -4.4005   24.8370 C   0  0  0  0  0  0  0  0  0  0  0  0
    6.0642   -5.2001   23.8079 C   0  0  0  0  0  0  0  0  0  0  0  0
    4.6306   -5.5750   24.0407 C   0  0  0  0  0  0  0  0  0  0  0  0
    3.8878   -6.3745   23.0117 C   0  0  0  0  0  0  0  0  0  0  0  0
    2.4542   -6.7495   23.2445 O   0  0  0  0  0  0  0  0  0  0  0  0
    4.5787   -6.7992   21.7497 N   0  0  0  0  0  0  0  0  0  0  0  0
    6.0122   -6.4242   21.5169 C   0  0  0  0  0  0  0  0  0  0  0  0
    6.7550   -5.6246   22.5460 N   0  0  0  0  0  0  0  0  0  0  0  0
    4.0911   -7.3239   21.0743 H   0  0  0  0  0  0  0  0  0  0  0  0
  2  1  1  0  0  0
  2  3  1  0  0  0
  3  4  1  0  0  0
  4 19  1  0  0  0
 19 20  2  0  0  0
 20 21  1  0  0  0
 21 22  2  0  0  0
 22 23  1  0  0  0
 23 24  2  0  0  0
 24 25  1  0  0  0
 25 26  2  0  0  0
 26 27  1  0  0  0
 27 28  2  0  0  0
  4  5  1  0  0  0
  5  6  2  0  0  0
  5  7  1  0  0  0
  7  8  1  0  0  0
  8  9  1  0  0  0
  9 29  1  0  0  0
 29 30  1  0  0  0
 30 31  2  0  0  0
 31 32  1  0  0  0
 32 33  2  0  0  0
 32 34  1  0  0  0
 34 35  1  0  0  0
 35 36  2  0  0  0
  9 10  1  0  0  0
 10 11  2  0  0  0
 10 12  1  0  0  0
 12 13  2  0  0  0
 13 14  1  0  0  0
 14 15  2  0  0  0
 15 16  1  0  0  0
 15 17  1  0  0  0
 17 18  2  0  0  0
  7  2  1  0  0  0
 36 30  1  0  0  0
 18 12  1  0  0  0
 28 19  1  0  0  0
 18  7  1  0  0  0
 28 23  1  0  0  0
 34 37  1  0  0  0
M  END
> <minimizedAffinity>
-9.71585

> <CNNscore>
0.2779050469

> <CNNaffinity>
6.7736129761

> <CNN_VS>
1.8824212551

> <CNNaffinity_variance>
0.0920220241

$$$$



 37 42  0  0  0  0  0  0  0  0999 V2000
    7.3135    0.2299   20.1764 C   0  0  0  0  0  0  0  0  0  0  0  0
    7.6252    0.0458   21.6321 C   0  0  0  0  0  0  0  0  0  0  0  0
    9.0587   -0.3348   21.8560 C   0  0  0  0  0  0  0  0  0  0  0  0
    9.2706   -0.4951   23.3323 N   0  0  0  0  0  0  0  0  0  0  0  0
    7.9680   -0.2136   24.0207 C   0  0  0  0  0  0  0  0  0  0  0  0
    7.7250   -0.2585   25.5002 O   0  0  0  0  0  0  0  0  0  0  0  0
    6.9510    0.1207   22.9700 C   0  0  0  0  0  0  0  0  0  0  0  0
    6.4153    0.1559   24.3705 C   0  0  0  0  0  0  0  0  0  0  0  0
    4.9768    0.5040   24.6148 N   0  0  0  0  0  0  0  0  0  0  0  0
    4.0741    0.8168   23.4584 C   0  0  0  0  0  0  0  0  0  0  0  0
    2.6356    1.1649   23.7027 O   0  0  0  0  0  0  0  0  0  0  0  0
    4.6098    0.7816   22.0577 C   0  0  0  0  0  0  0  0  0  0  0  0
    3.7071    1.0944   20.9014 C   0  0  0  0  0  0  0  0  0  0  0  0
    4.2429    1.0592   19.5008 C   0  0  0  0  0  0  0  0  0  0  0  0
    5.6814    0.7111   19.2566 C   0  0  0  0  0  0  0  0  0  0  0  0
    6.2171    0.6759   17.8559 F   0  0  0  0  0  0  0  0  0  0  0  0
    6.5841    0.3983   20.4129 C   0  0  0  0  0  0  0  0  0  0  0  0
    6.0483    0.4335   21.8135 C   0  0  0  0  0  0  0  0  0  0  0  0
   10.5588   -0.8709   24.0024 C   0  0  0  0  0  0  0  0  0  0  0  0
   11.7620    0.0141   23.8646 C   0  0  0  0  0  0  0  0  0  0  0  0
   13.0502   -0.3617   24.5347 N   0  0  0  0  0  0  0  0  0  0  0  0
   13.1353   -1.6226   25.3428 C   0  0  0  0  0  0  0  0  0  0  0  0
   11.9321   -2.5076   25.4807 C   0  0  0  0  0  0  0  0  0  0  0  0
   12.0172   -3.7685   26.2888 C   0  0  0  0  0  0  0  0  0  0  0  0
   10.8139   -4.6535   26.4266 C   0  0  0  0  0  0  0  0  0  0  0  0
    9.5257   -4.2777   25.7564 C   0  0  0  0  0  0  0  0  0  0  0  0
    9.4407   -3.0168   24.9484 C   0  0  0  0  0  0  0  0  0  0  0  0
   10.6438   -2.1318   24.8105 C   0  0  0  0  0  0  0  0  0  0  0  0
    4.4411    0.5392   26.0154 C   0  0  0  0  0  0  0  0  0  0  0  0
    4.8172    1.6636   26.9343 C   0  0  0  0  0  0  0  0  0  0  0  0
    5.9038    1.4704   27.9502 C   0  0  0  0  0  0  0  0  0  0  0  0
    6.2799    2.5948   28.8690 C   0  0  0  0  0  0  0  0  0  0  0  0
    7.3665    2.4016   29.8849 O   0  0  0  0  0  0  0  0  0  0  0  0
    5.5696    3.9124   28.7719 N   0  0  0  0  0  0  0  0  0  0  0  0
    4.4830    4.1056   27.7560 C   0  0  0  0  0  0  0  0  0  0  0  0
    4.1069    2.9811   26.8371 N   0  0  0  0  0  0  0  0  0  0  0  0
    5.8164    4.6504   29.3750 H   0  0  0  0  0  0  0  0  0  0  0  0
  2  1  1  0  0  0
  2  3  1  0  0  0
  3  4  1  0  0  0
  4 19  1  0  0  0
 19 20  2  0  0  0
 20 21  1  0  0  0
 21 22  2  0  0  0
 22 23  1  0  0  0
 23 24  2  0  0  0
 24 25  1  0  0  0
 25 26  2  0  0  0
 26 27  1  0  0  0
 27 28  2  0  0  0
  4  5  1  0  0  0
  5  6  2  0  0  0
  5  7  1  0  0  0
  7  8  1  0  0  0
  8  9  1  0  0  0
  9 29  1  0  0  0
 29 30  1  0  0  0
 30 31  2  0  0  0
 31 32  1  0  0  0
 32 33  2  0  0  0
 32 34  1  0  0  0
 34 35  1  0  0  0
 35 36  2  0  0  0
  9 10  1  0  0  0
 10 11  2  0  0  0
 10 12  1  0  0  0
 12 13  2  0  0  0
 13 14  1  0  0  0
 14 15  2  0  0  0
 15 16  1  0  0  0
 15 17  1  0  0  0
 17 18  2  0  0  0
  7  2  1  0  0  0
 36 30  1  0  0  0
 18 12  1  0  0  0
 28 19  1  0  0  0
 18  7  1  0  0  0
 28 23  1  0  0  0
 34 37  1  0  0  0
M  END
> <minimizedAffinity>
-8.56607

> <CNNscore>
0.2644549906

> <CNNaffinity>
6.5677208900

> <CNN_VS>
1.7368665934

> <CNNaffinity_variance>
0.0476733334

$$$$



 37 42  0  0  0  0  0  0  0  0999 V2000
   10.6460    0.0356   22.7996 C   0  0  0  0  0  0  0  0  0  0  0  0
    9.2124   -0.3329   22.5566 C   0  0  0  0  0  0  0  0  0  0  0  0
    8.6823    0.2760   21.2924 C   0  0  0  0  0  0  0  0  0  0  0  0
    7.2516   -0.1478   21.1382 N   0  0  0  0  0  0  0  0  0  0  0  0
    6.8976   -1.0185   22.3072 C   0  0  0  0  0  0  0  0  0  0  0  0
    5.5656   -1.6619   22.5558 O   0  0  0  0  0  0  0  0  0  0  0  0
    8.1094   -1.1330   23.1838 C   0  0  0  0  0  0  0  0  0  0  0  0
    6.9168   -1.8889   23.6899 C   0  0  0  0  0  0  0  0  0  0  0  0
    7.0094   -2.6668   24.9691 N   0  0  0  0  0  0  0  0  0  0  0  0
    8.2946   -2.6888   25.7421 C   0  0  0  0  0  0  0  0  0  0  0  0
    8.3872   -3.4667   27.0213 O   0  0  0  0  0  0  0  0  0  0  0  0
    9.4873   -1.9328   25.2361 C   0  0  0  0  0  0  0  0  0  0  0  0
   10.7725   -1.9548   26.0091 C   0  0  0  0  0  0  0  0  0  0  0  0
   11.9652   -1.1989   25.5030 C   0  0  0  0  0  0  0  0  0  0  0  0
   11.8726   -0.4210   24.2239 C   0  0  0  0  0  0  0  0  0  0  0  0
   13.0653    0.3350   23.7178 F   0  0  0  0  0  0  0  0  0  0  0  0
   10.5874   -0.3990   23.4508 C   0  0  0  0  0  0  0  0  0  0  0  0
    9.3947   -1.1549   23.9569 C   0  0  0  0  0  0  0  0  0  0  0  0
    6.3358    0.2325   20.0128 C   0  0  0  0  0  0  0  0  0  0  0  0
    6.4829   -0.4235   18.6720 C   0  0  0  0  0  0  0  0  0  0  0  0
    5.5670   -0.0432   17.5465 N   0  0  0  0  0  0  0  0  0  0  0  0
    4.5042    0.9930   17.7620 C   0  0  0  0  0  0  0  0  0  0  0  0
    4.3571    1.6490   19.1029 C   0  0  0  0  0  0  0  0  0  0  0  0
    3.2942    2.6853   19.3183 C   0  0  0  0  0  0  0  0  0  0  0  0
    3.1472    3.3413   20.6593 C   0  0  0  0  0  0  0  0  0  0  0  0
    4.0630    2.9610   21.7847 C   0  0  0  0  0  0  0  0  0  0  0  0
    5.1259    1.9248   21.5692 C   0  0  0  0  0  0  0  0  0  0  0  0
    5.2729    1.2688   20.2283 C   0  0  0  0  0  0  0  0  0  0  0  0
    5.8167   -3.4228   25.4751 C   0  0  0  0  0  0  0  0  0  0  0  0
    5.2435   -4.5482   24.6660 C   0  0  0  0  0  0  0  0  0  0  0  0
    5.8682   -4.9235   23.3550 C   0  0  0  0  0  0  0  0  0  0  0  0
    5.2950   -6.0490   22.5459 C   0  0  0  0  0  0  0  0  0  0  0  0
    5.9197   -6.4242   21.2348 O   0  0  0  0  0  0  0  0  0  0  0  0
    4.0970   -6.7993   23.0478 N   0  0  0  0  0  0  0  0  0  0  0  0
    3.4722   -6.4240   24.3589 C   0  0  0  0  0  0  0  0  0  0  0  0
    4.0455   -5.2985   25.1680 N   0  0  0  0  0  0  0  0  0  0  0  0
    3.7207   -7.5380   22.5168 H   0  0  0  0  0  0  0  0  0  0  0  0
  2  1  1  0  0  0
  2  3  1  0  0  0
  3  4  1  0  0  0
  4 19  1  0  0  0
 19 20  2  0  0  0
 20 21  1  0  0  0
 21 22  2  0  0  0
 22 23  1  0  0  0
 23 24  2  0  0  0
 24 25  1  0  0  0
 25 26  2  0  0  0
 26 27  1  0  0  0
 27 28  2  0  0  0
  4  5  1  0  0  0
  5  6  2  0  0  0
  5  7  1  0  0  0
  7  8  1  0  0  0
  8  9  1  0  0  0
  9 29  1  0  0  0
 29 30  1  0  0  0
 30 31  2  0  0  0
 31 32  1  0  0  0
 32 33  2  0  0  0
 32 34  1  0  0  0
 34 35  1  0  0  0
 35 36  2  0  0  0
  9 10  1  0  0  0
 10 11  2  0  0  0
 10 12  1  0  0  0
 12 13  2  0  0  0
 13 14  1  0  0  0
 14 15  2  0  0  0
 15 16  1  0  0  0
 15 17  1  0  0  0
 17 18  2  0  0  0
  7  2  1  0  0  0
 36 30  1  0  0  0
 18 12  1  0  0  0
 28 19  1  0  0  0
 18  7  1  0  0  0
 28 23  1  0  0  0
 34 37  1  0  0  0
M  END
> <minimizedAffinity>
-10.11117

> <CNNscore>
0.2566506863

> <CNNaffinity>
6.6293740273

> <CNN_VS>
1.7014334202

> <CNNaffinity_variance>
0.1298953295

$$$$
