


 37 42  0  0  0  0  0  0  0  0999 V2000
   -9.5009   -2.4860  -23.7179 C   0  0  0  0  0  0  0  0  0  0  0  0
   -8.2606   -2.7178  -22.9067 C   0  0  0  0  0  0  0  0  0  0  0  0
   -7.9892   -1.5867  -21.9596 C   0  0  0  0  0  0  0  0  0  0  0  0
   -6.7375   -1.9095  -21.1987 N   0  0  0  0  0  0  0  0  0  0  0  0
   -6.2353   -3.2401  -21.6756 C   0  0  0  0  0  0  0  0  0  0  0  0
   -5.0073   -3.9470  -21.1833 O   0  0  0  0  0  0  0  0  0  0  0  0
   -7.1767   -3.7396  -22.7312 C   0  0  0  0  0  0  0  0  0  0  0  0
   -6.0320   -4.6662  -22.4466 C   0  0  0  0  0  0  0  0  0  0  0  0
   -5.9107   -5.9604  -23.1953 N   0  0  0  0  0  0  0  0  0  0  0  0
   -6.9340   -6.3279  -24.2285 C   0  0  0  0  0  0  0  0  0  0  0  0
   -6.8127   -7.6220  -24.9772 O   0  0  0  0  0  0  0  0  0  0  0  0
   -8.0788   -5.4012  -24.5132 C   0  0  0  0  0  0  0  0  0  0  0  0
   -9.1021   -5.7688  -25.5464 C   0  0  0  0  0  0  0  0  0  0  0  0
  -10.2468   -4.8421  -25.8310 C   0  0  0  0  0  0  0  0  0  0  0  0
  -10.3681   -3.5480  -25.0823 C   0  0  0  0  0  0  0  0  0  0  0  0
  -11.5129   -2.6214  -25.3670 F   0  0  0  0  0  0  0  0  0  0  0  0
   -9.3448   -3.1805  -24.0491 C   0  0  0  0  0  0  0  0  0  0  0  0
   -8.2001   -4.1071  -23.7645 C   0  0  0  0  0  0  0  0  0  0  0  0
   -6.0999   -1.0523  -20.1458 C   0  0  0  0  0  0  0  0  0  0  0  0
   -6.6407   -1.0560  -18.7468 C   0  0  0  0  0  0  0  0  0  0  0  0
   -6.0031   -0.1988  -17.6939 N   0  0  0  0  0  0  0  0  0  0  0  0
   -4.8246    0.6621  -18.0401 C   0  0  0  0  0  0  0  0  0  0  0  0
   -4.2837    0.6658  -19.4392 C   0  0  0  0  0  0  0  0  0  0  0  0
   -3.1051    1.5268  -19.7854 C   0  0  0  0  0  0  0  0  0  0  0  0
   -2.5643    1.5305  -21.1845 C   0  0  0  0  0  0  0  0  0  0  0  0
   -3.2020    0.6733  -22.2373 C   0  0  0  0  0  0  0  0  0  0  0  0
   -4.3805   -0.1876  -21.8911 C   0  0  0  0  0  0  0  0  0  0  0  0
   -4.9213   -0.1914  -20.4921 C   0  0  0  0  0  0  0  0  0  0  0  0
   -4.7659   -6.8870  -22.9107 C   0  0  0  0  0  0  0  0  0  0  0  0
   -3.5224   -6.8218  -23.7470 C   0  0  0  0  0  0  0  0  0  0  0  0
   -3.6097   -6.4257  -25.1911 C   0  0  0  0  0  0  0  0  0  0  0  0
   -2.3662   -6.3605  -26.0274 C   0  0  0  0  0  0  0  0  0  0  0  0
   -2.4535   -5.9644  -27.4715 O   0  0  0  0  0  0  0  0  0  0  0  0
   -1.0353   -6.6914  -25.4195 N   0  0  0  0  0  0  0  0  0  0  0  0
   -0.9480   -7.0874  -23.9754 C   0  0  0  0  0  0  0  0  0  0  0  0
   -2.1916   -7.1526  -23.1391 N   0  0  0  0  0  0  0  0  0  0  0  0
   -0.2192   -6.6485  -25.9684 H   0  0  0  0  0  0  0  0  0  0  0  0
  2  1  1  0  0  0
  2  3  1  0  0  0
  3  4  1  0  0  0
  4 19  1  0  0  0
 19 20  2  0  0  0
 20 21  1  0  0  0
 21 22  2  0  0  0
 22 23  1  0  0  0
 23 24  2  0  0  0
 24 25  1  0  0  0
 25 26  2  0  0  0
 26 27  1  0  0  0
 27 28  2  0  0  0
  4  5  1  0  0  0
  5  6  2  0  0  0
  5  7  1  0  0  0
  7  8  1  0  0  0
  8  9  1  0  0  0
  9 29  1  0  0  0
 29 30  1  0  0  0
 30 31  2  0  0  0
 31 32  1  0  0  0
 32 33  2  0  0  0
 32 34  1  0  0  0
 34 35  1  0  0  0
 35 36  2  0  0  0
  9 10  1  0  0  0
 10 11  2  0  0  0
 10 12  1  0  0  0
 12 13  2  0  0  0
 13 14  1  0  0  0
 14 15  2  0  0  0
 15 16  1  0  0  0
 15 17  1  0  0  0
 17 18  2  0  0  0
  7  2  1  0  0  0
 36 30  1  0  0  0
 18 12  1  0  0  0
 28 19  1  0  0  0
 18  7  1  0  0  0
 28 23  1  0  0  0
 34 37  1  0  0  0
M  END
> <minimizedAffinity>
-8.53572

> <CNNscore>
0.4642001987

> <CNNaffinity>
6.5749597549

> <CNN_VS>
3.0520975590

> <CNNaffinity_variance>
0.0719140619

$$$$



 37 42  0  0  0  0  0  0  0  0999 V2000
   -5.8118   -5.3136  -23.4877 C   0  0  0  0  0  0  0  0  0  0  0  0
   -6.4780   -4.1475  -22.8194 C   0  0  0  0  0  0  0  0  0  0  0  0
   -5.5765   -3.4806  -21.8232 C   0  0  0  0  0  0  0  0  0  0  0  0
   -6.3276   -2.3347  -21.2127 N   0  0  0  0  0  0  0  0  0  0  0  0
   -7.6933   -2.2934  -21.8316 C   0  0  0  0  0  0  0  0  0  0  0  0
   -8.7760   -1.3052  -21.5133 O   0  0  0  0  0  0  0  0  0  0  0  0
   -7.7863   -3.4138  -22.8246 C   0  0  0  0  0  0  0  0  0  0  0  0
   -9.0328   -2.5859  -22.7204 C   0  0  0  0  0  0  0  0  0  0  0  0
  -10.2248   -2.9149  -23.5695 N   0  0  0  0  0  0  0  0  0  0  0  0
  -10.1703   -4.0717  -24.5227 C   0  0  0  0  0  0  0  0  0  0  0  0
  -11.3623   -4.4006  -25.3718 O   0  0  0  0  0  0  0  0  0  0  0  0
   -8.9238   -4.8996  -24.6270 C   0  0  0  0  0  0  0  0  0  0  0  0
   -8.8694   -6.0564  -25.5802 C   0  0  0  0  0  0  0  0  0  0  0  0
   -7.6229   -6.8843  -25.6844 C   0  0  0  0  0  0  0  0  0  0  0  0
   -6.4309   -6.5554  -24.8353 C   0  0  0  0  0  0  0  0  0  0  0  0
   -5.1844   -7.3834  -24.9395 F   0  0  0  0  0  0  0  0  0  0  0  0
   -6.4854   -5.3986  -23.8821 C   0  0  0  0  0  0  0  0  0  0  0  0
   -7.7318   -4.5707  -23.7779 C   0  0  0  0  0  0  0  0  0  0  0  0
   -5.8047   -1.3950  -20.1669 C   0  0  0  0  0  0  0  0  0  0  0  0
   -6.2802   -1.5112  -18.7491 C   0  0  0  0  0  0  0  0  0  0  0  0
   -5.7574   -0.5715  -17.7033 N   0  0  0  0  0  0  0  0  0  0  0  0
   -4.7591    0.4843  -18.0754 C   0  0  0  0  0  0  0  0  0  0  0  0
   -4.2835    0.6005  -19.4933 C   0  0  0  0  0  0  0  0  0  0  0  0
   -3.2851    1.6564  -19.8654 C   0  0  0  0  0  0  0  0  0  0  0  0
   -2.8097    1.7725  -21.2833 C   0  0  0  0  0  0  0  0  0  0  0  0
   -3.3325    0.8328  -22.3290 C   0  0  0  0  0  0  0  0  0  0  0  0
   -4.3309   -0.2230  -21.9569 C   0  0  0  0  0  0  0  0  0  0  0  0
   -4.8064   -0.3392  -20.5391 C   0  0  0  0  0  0  0  0  0  0  0  0
  -11.4713   -2.0869  -23.4653 C   0  0  0  0  0  0  0  0  0  0  0  0
  -11.4013   -0.5997  -23.6480 C   0  0  0  0  0  0  0  0  0  0  0  0
  -12.5659    0.2599  -23.2545 C   0  0  0  0  0  0  0  0  0  0  0  0
  -12.4959    1.7470  -23.4373 C   0  0  0  0  0  0  0  0  0  0  0  0
  -13.6604    2.6067  -23.0438 O   0  0  0  0  0  0  0  0  0  0  0  0
  -11.2613    2.3746  -24.0136 N   0  0  0  0  0  0  0  0  0  0  0  0
  -10.0968    1.5150  -24.4071 C   0  0  0  0  0  0  0  0  0  0  0  0
  -10.1668    0.0278  -24.2243 N   0  0  0  0  0  0  0  0  0  0  0  0
  -11.2154    3.3507  -24.1336 H   0  0  0  0  0  0  0  0  0  0  0  0
  2  1  1  0  0  0
  2  3  1  0  0  0
  3  4  1  0  0  0
  4 19  1  0  0  0
 19 20  2  0  0  0
 20 21  1  0  0  0
 21 22  2  0  0  0
 22 23  1  0  0  0
 23 24  2  0  0  0
 24 25  1  0  0  0
 25 26  2  0  0  0
 26 27  1  0  0  0
 27 28  2  0  0  0
  4  5  1  0  0  0
  5  6  2  0  0  0
  5  7  1  0  0  0
  7  8  1  0  0  0
  8  9  1  0  0  0
  9 29  1  0  0  0
 29 30  1  0  0  0
 30 31  2  0  0  0
 31 32  1  0  0  0
 32 33  2  0  0  0
 32 34  1  0  0  0
 34 35  1  0  0  0
 35 36  2  0  0  0
  9 10  1  0  0  0
 10 11  2  0  0  0
 10 12  1  0  0  0
 12 13  2  0  0  0
 13 14  1  0  0  0
 14 15  2  0  0  0
 15 16  1  0  0  0
 15 17  1  0  0  0
 17 18  2  0  0  0
  7  2  1  0  0  0
 36 30  1  0  0  0
 18 12  1  0  0  0
 28 19  1  0  0  0
 18  7  1  0  0  0
 28 23  1  0  0  0
 34 37  1  0  0  0
M  END
> <minimizedAffinity>
-9.70162

> <CNNscore>
0.3535837233

> <CNNaffinity>
6.3460626602

> <CNN_VS>
2.2438645363

> <CNNaffinity_variance>
0.0799399763

$$$$



 37 42  0  0  0  0  0  0  0  0999 V2000
  -11.1668   -2.1008  -24.2028 C   0  0  0  0  0  0  0  0  0  0  0  0
  -10.7074   -0.7099  -23.8796 C   0  0  0  0  0  0  0  0  0  0  0  0
  -11.8485    0.2627  -23.8355 C   0  0  0  0  0  0  0  0  0  0  0  0
  -11.2915    1.6162  -23.5073 N   0  0  0  0  0  0  0  0  0  0  0  0
   -9.8061    1.4801  -23.3487 C   0  0  0  0  0  0  0  0  0  0  0  0
   -8.8496    2.5873  -23.0180 O   0  0  0  0  0  0  0  0  0  0  0  0
   -9.4451    0.0425  -23.5788 C   0  0  0  0  0  0  0  0  0  0  0  0
   -8.2723    0.9232  -23.2645 C   0  0  0  0  0  0  0  0  0  0  0  0
   -6.8915    0.3403  -23.2043 N   0  0  0  0  0  0  0  0  0  0  0  0
   -6.6835   -1.1233  -23.4584 C   0  0  0  0  0  0  0  0  0  0  0  0
   -5.3027   -1.7062  -23.3982 O   0  0  0  0  0  0  0  0  0  0  0  0
   -7.8563   -2.0041  -23.7727 C   0  0  0  0  0  0  0  0  0  0  0  0
   -7.6483   -3.4677  -24.0268 C   0  0  0  0  0  0  0  0  0  0  0  0
   -8.8211   -4.3484  -24.3410 C   0  0  0  0  0  0  0  0  0  0  0  0
  -10.2019   -3.7655  -24.4012 C   0  0  0  0  0  0  0  0  0  0  0  0
  -11.3748   -4.6463  -24.7155 F   0  0  0  0  0  0  0  0  0  0  0  0
  -10.4099   -2.3019  -24.1472 C   0  0  0  0  0  0  0  0  0  0  0  0
   -9.2371   -1.4212  -23.8329 C   0  0  0  0  0  0  0  0  0  0  0  0
  -12.0811    2.8833  -23.3632 C   0  0  0  0  0  0  0  0  0  0  0  0
  -13.0340    3.0468  -22.2165 C   0  0  0  0  0  0  0  0  0  0  0  0
  -13.8237    4.3139  -22.0723 N   0  0  0  0  0  0  0  0  0  0  0  0
  -13.6603    5.4176  -23.0749 C   0  0  0  0  0  0  0  0  0  0  0  0
  -12.7073    5.2541  -24.2216 C   0  0  0  0  0  0  0  0  0  0  0  0
  -12.5440    6.3579  -25.2243 C   0  0  0  0  0  0  0  0  0  0  0  0
  -11.5909    6.1943  -26.3710 C   0  0  0  0  0  0  0  0  0  0  0  0
  -10.8014    4.9272  -26.5151 C   0  0  0  0  0  0  0  0  0  0  0  0
  -10.9647    3.8235  -25.5125 C   0  0  0  0  0  0  0  0  0  0  0  0
  -11.9177    3.9870  -24.3658 C   0  0  0  0  0  0  0  0  0  0  0  0
   -5.7186    1.2211  -22.8900 C   0  0  0  0  0  0  0  0  0  0  0  0
   -5.0995    1.1866  -21.5242 C   0  0  0  0  0  0  0  0  0  0  0  0
   -5.7258    0.3641  -20.4374 C   0  0  0  0  0  0  0  0  0  0  0  0
   -5.1067    0.3296  -19.0716 C   0  0  0  0  0  0  0  0  0  0  0  0
   -5.7330   -0.4929  -17.9847 O   0  0  0  0  0  0  0  0  0  0  0  0
   -3.8612    1.1177  -18.7925 N   0  0  0  0  0  0  0  0  0  0  0  0
   -3.2349    1.9402  -19.8793 C   0  0  0  0  0  0  0  0  0  0  0  0
   -3.8541    1.9747  -21.2452 N   0  0  0  0  0  0  0  0  0  0  0  0
   -3.4549    1.0951  -17.8961 H   0  0  0  0  0  0  0  0  0  0  0  0
  2  1  1  0  0  0
  2  3  1  0  0  0
  3  4  1  0  0  0
  4 19  1  0  0  0
 19 20  2  0  0  0
 20 21  1  0  0  0
 21 22  2  0  0  0
 22 23  1  0  0  0
 23 24  2  0  0  0
 24 25  1  0  0  0
 25 26  2  0  0  0
 26 27  1  0  0  0
 27 28  2  0  0  0
  4  5  1  0  0  0
  5  6  2  0  0  0
  5  7  1  0  0  0
  7  8  1  0  0  0
  8  9  1  0  0  0
  9 29  1  0  0  0
 29 30  1  0  0  0
 30 31  2  0  0  0
 31 32  1  0  0  0
 32 33  2  0  0  0
 32 34  1  0  0  0
 34 35  1  0  0  0
 35 36  2  0  0  0
  9 10  1  0  0  0
 10 11  2  0  0  0
 10 12  1  0  0  0
 12 13  2  0  0  0
 13 14  1  0  0  0
 14 15  2  0  0  0
 15 16  1  0  0  0
 15 17  1  0  0  0
 17 18  2  0  0  0
  7  2  1  0  0  0
 36 30  1  0  0  0
 18 12  1  0  0  0
 28 19  1  0  0  0
 18  7  1  0  0  0
 28 23  1  0  0  0
 34 37  1  0  0  0
M  END
> <minimizedAffinity>
-9.04241

> <CNNscore>
0.2761652172

> <CNNaffinity>
6.4122314453

> <CNN_VS>
1.7708352804

> <CNNaffinity_variance>
0.0946978852

$$$$



 37 42  0  0  0  0  0  0  0  0999 V2000
  -11.5845   -3.0202  -23.2723 C   0  0  0  0  0  0  0  0  0  0  0  0
  -10.2494   -2.5725  -23.7892 C   0  0  0  0  0  0  0  0  0  0  0  0
   -9.3138   -3.7256  -24.0018 C   0  0  0  0  0  0  0  0  0  0  0  0
   -8.0147   -3.1798  -24.5160 N   0  0  0  0  0  0  0  0  0  0  0  0
   -8.1475   -1.6893  -24.6212 C   0  0  0  0  0  0  0  0  0  0  0  0
   -7.0855   -0.7408  -25.0928 O   0  0  0  0  0  0  0  0  0  0  0  0
   -9.5285   -1.3140  -24.1720 C   0  0  0  0  0  0  0  0  0  0  0  0
   -8.6843   -0.1465  -24.5891 C   0  0  0  0  0  0  0  0  0  0  0  0
   -9.2460    1.2433  -24.5327 N   0  0  0  0  0  0  0  0  0  0  0  0
  -10.6518    1.4654  -24.0591 C   0  0  0  0  0  0  0  0  0  0  0  0
  -11.2134    2.8552  -24.0027 O   0  0  0  0  0  0  0  0  0  0  0  0
  -11.4961    0.2978  -23.6420 C   0  0  0  0  0  0  0  0  0  0  0  0
  -12.9019    0.5200  -23.1685 C   0  0  0  0  0  0  0  0  0  0  0  0
  -13.7461   -0.6476  -22.7514 C   0  0  0  0  0  0  0  0  0  0  0  0
  -13.1845   -2.0374  -22.8079 C   0  0  0  0  0  0  0  0  0  0  0  0
  -14.0288   -3.2050  -22.3907 F   0  0  0  0  0  0  0  0  0  0  0  0
  -11.7787   -2.2595  -23.2814 C   0  0  0  0  0  0  0  0  0  0  0  0
  -10.9345   -1.0919  -23.6985 C   0  0  0  0  0  0  0  0  0  0  0  0
   -6.7968   -3.9832  -24.8639 C   0  0  0  0  0  0  0  0  0  0  0  0
   -5.9375   -3.5781  -26.0246 C   0  0  0  0  0  0  0  0  0  0  0  0
   -4.7195   -4.3816  -26.3725 N   0  0  0  0  0  0  0  0  0  0  0  0
   -4.3609   -5.5901  -25.5596 C   0  0  0  0  0  0  0  0  0  0  0  0
   -5.2203   -5.9952  -24.3988 C   0  0  0  0  0  0  0  0  0  0  0  0
   -4.8616   -7.2038  -23.5859 C   0  0  0  0  0  0  0  0  0  0  0  0
   -5.7211   -7.6088  -22.4251 C   0  0  0  0  0  0  0  0  0  0  0  0
   -6.9389   -6.8054  -22.0773 C   0  0  0  0  0  0  0  0  0  0  0  0
   -7.2975   -5.5968  -22.8902 C   0  0  0  0  0  0  0  0  0  0  0  0
   -6.4383   -5.1918  -24.0509 C   0  0  0  0  0  0  0  0  0  0  0  0
   -8.4017    2.4109  -24.9498 C   0  0  0  0  0  0  0  0  0  0  0  0
   -7.6625    3.2089  -23.9170 C   0  0  0  0  0  0  0  0  0  0  0  0
   -6.4797    2.6122  -23.2132 C   0  0  0  0  0  0  0  0  0  0  0  0
   -5.7405    3.4102  -22.1804 C   0  0  0  0  0  0  0  0  0  0  0  0
   -4.5578    2.8136  -21.4767 O   0  0  0  0  0  0  0  0  0  0  0  0
   -6.1840    4.8049  -21.8513 N   0  0  0  0  0  0  0  0  0  0  0  0
   -7.3667    5.4015  -22.5550 C   0  0  0  0  0  0  0  0  0  0  0  0
   -8.1060    4.6035  -23.5879 N   0  0  0  0  0  0  0  0  0  0  0  0
   -5.6988    5.3286  -21.1734 H   0  0  0  0  0  0  0  0  0  0  0  0
  2  1  1  0  0  0
  2  3  1  0  0  0
  3  4  1  0  0  0
  4 19  1  0  0  0
 19 20  2  0  0  0
 20 21  1  0  0  0
 21 22  2  0  0  0
 22 23  1  0  0  0
 23 24  2  0  0  0
 24 25  1  0  0  0
 25 26  2  0  0  0
 26 27  1  0  0  0
 27 28  2  0  0  0
  4  5  1  0  0  0
  5  6  2  0  0  0
  5  7  1  0  0  0
  7  8  1  0  0  0
  8  9  1  0  0  0
  9 29  1  0  0  0
 29 30  1  0  0  0
 30 31  2  0  0  0
 31 32  1  0  0  0
 32 33  2  0  0  0
 32 34  1  0  0  0
 34 35  1  0  0  0
 35 36  2  0  0  0
  9 10  1  0  0  0
 10 11  2  0  0  0
 10 12  1  0  0  0
 12 13  2  0  0  0
 13 14  1  0  0  0
 14 15  2  0  0  0
 15 16  1  0  0  0
 15 17  1  0  0  0
 17 18  2  0  0  0
  7  2  1  0  0  0
 36 30  1  0  0  0
 18 12  1  0  0  0
 28 19  1  0  0  0
 18  7  1  0  0  0
 28 23  1  0  0  0
 34 37  1  0  0  0
M  END
> <minimizedAffinity>
-8.12642

> <CNNscore>
0.2401037663

> <CNNaffinity>
6.4778571129

> <CNN_VS>
1.5553579330

> <CNNaffinity_variance>
0.0586221591

$$$$



 37 42  0  0  0  0  0  0  0  0999 V2000
   -9.9970    1.2885  -22.4696 C   0  0  0  0  0  0  0  0  0  0  0  0
   -8.6966    0.5483  -22.5758 C   0  0  0  0  0  0  0  0  0  0  0  0
   -7.5573    1.3266  -21.9873 C   0  0  0  0  0  0  0  0  0  0  0  0
   -6.3092    0.5088  -22.1406 N   0  0  0  0  0  0  0  0  0  0  0  0
   -6.6772   -0.7749  -22.8237 C   0  0  0  0  0  0  0  0  0  0  0  0
   -5.7350   -1.8876  -23.1760 O   0  0  0  0  0  0  0  0  0  0  0  0
   -8.1527   -0.7505  -23.0927 C   0  0  0  0  0  0  0  0  0  0  0  0
   -7.4680   -2.0008  -23.5596 C   0  0  0  0  0  0  0  0  0  0  0  0
   -8.2604   -3.0848  -24.2282 N   0  0  0  0  0  0  0  0  0  0  0  0
   -9.7374   -2.9187  -24.4297 C   0  0  0  0  0  0  0  0  0  0  0  0
  -10.5298   -4.0027  -25.0982 O   0  0  0  0  0  0  0  0  0  0  0  0
  -10.4222   -1.6684  -23.9628 C   0  0  0  0  0  0  0  0  0  0  0  0
  -11.8992   -1.5022  -24.1644 C   0  0  0  0  0  0  0  0  0  0  0  0
  -12.5839   -0.2520  -23.6974 C   0  0  0  0  0  0  0  0  0  0  0  0
  -11.7915    0.8321  -23.0289 C   0  0  0  0  0  0  0  0  0  0  0  0
  -12.4762    2.0824  -22.5619 F   0  0  0  0  0  0  0  0  0  0  0  0
  -10.3144    0.6659  -22.8273 C   0  0  0  0  0  0  0  0  0  0  0  0
   -9.6298   -0.5843  -23.2943 C   0  0  0  0  0  0  0  0  0  0  0  0
   -4.9346    0.9051  -21.6898 C   0  0  0  0  0  0  0  0  0  0  0  0
   -4.6818    1.2253  -20.2464 C   0  0  0  0  0  0  0  0  0  0  0  0
   -3.3072    1.6216  -19.7956 N   0  0  0  0  0  0  0  0  0  0  0  0
   -2.1853    1.6978  -20.7883 C   0  0  0  0  0  0  0  0  0  0  0  0
   -2.4380    1.3776  -22.2318 C   0  0  0  0  0  0  0  0  0  0  0  0
   -1.3160    1.4538  -23.2246 C   0  0  0  0  0  0  0  0  0  0  0  0
   -1.5689    1.1336  -24.6680 C   0  0  0  0  0  0  0  0  0  0  0  0
   -2.9435    0.7373  -25.1187 C   0  0  0  0  0  0  0  0  0  0  0  0
   -4.0654    0.6611  -24.1260 C   0  0  0  0  0  0  0  0  0  0  0  0
   -3.8127    0.9813  -22.6826 C   0  0  0  0  0  0  0  0  0  0  0  0
   -7.5756   -4.3351  -24.6951 C   0  0  0  0  0  0  0  0  0  0  0  0
   -7.0220   -5.3055  -23.6943 C   0  0  0  0  0  0  0  0  0  0  0  0
   -6.4513   -4.8049  -22.4005 C   0  0  0  0  0  0  0  0  0  0  0  0
   -5.8977   -5.7753  -21.3997 C   0  0  0  0  0  0  0  0  0  0  0  0
   -5.3270   -5.2747  -20.1059 O   0  0  0  0  0  0  0  0  0  0  0  0
   -5.9146   -7.2464  -21.6925 N   0  0  0  0  0  0  0  0  0  0  0  0
   -6.4852   -7.7470  -22.9862 C   0  0  0  0  0  0  0  0  0  0  0  0
   -7.0389   -6.7765  -23.9871 N   0  0  0  0  0  0  0  0  0  0  0  0
   -5.5512   -7.8833  -21.0356 H   0  0  0  0  0  0  0  0  0  0  0  0
  2  1  1  0  0  0
  2  3  1  0  0  0
  3  4  1  0  0  0
  4 19  1  0  0  0
 19 20  2  0  0  0
 20 21  1  0  0  0
 21 22  2  0  0  0
 22 23  1  0  0  0
 23 24  2  0  0  0
 24 25  1  0  0  0
 25 26  2  0  0  0
 26 27  1  0  0  0
 27 28  2  0  0  0
  4  5  1  0  0  0
  5  6  2  0  0  0
  5  7  1  0  0  0
  7  8  1  0  0  0
  8  9  1  0  0  0
  9 29  1  0  0  0
 29 30  1  0  0  0
 30 31  2  0  0  0
 31 32  1  0  0  0
 32 33  2  0  0  0
 32 34  1  0  0  0
 34 35  1  0  0  0
 35 36  2  0  0  0
  9 10  1  0  0  0
 10 11  2  0  0  0
 10 12  1  0  0  0
 12 13  2  0  0  0
 13 14  1  0  0  0
 14 15  2  0  0  0
 15 16  1  0  0  0
 15 17  1  0  0  0
 17 18  2  0  0  0
  7  2  1  0  0  0
 36 30  1  0  0  0
 18 12  1  0  0  0
 28 19  1  0  0  0
 18  7  1  0  0  0
 28 23  1  0  0  0
 34 37  1  0  0  0
M  END
> <minimizedAffinity>
-7.98544

> <CNNscore>
0.1856787354

> <CNNaffinity>
6.3193969727

> <CNN_VS>
1.1733776331

> <CNNaffinity_variance>
0.1752385348

$$$$



 37 42  0  0  0  0  0  0  0  0999 V2000
   -7.9168   -3.2539  -26.1769 C   0  0  0  0  0  0  0  0  0  0  0  0
   -7.8605   -2.2832  -25.0346 C   0  0  0  0  0  0  0  0  0  0  0  0
   -8.4695   -0.9597  -25.3914 C   0  0  0  0  0  0  0  0  0  0  0  0
   -8.3660   -0.0636  -24.1930 N   0  0  0  0  0  0  0  0  0  0  0  0
   -7.6930   -0.8334  -23.0955 C   0  0  0  0  0  0  0  0  0  0  0  0
   -7.3863   -0.3212  -21.7194 O   0  0  0  0  0  0  0  0  0  0  0  0
   -7.3806   -2.2052  -23.6156 C   0  0  0  0  0  0  0  0  0  0  0  0
   -6.9539   -1.9794  -22.1954 C   0  0  0  0  0  0  0  0  0  0  0  0
   -6.2799   -3.0799  -21.4308 N   0  0  0  0  0  0  0  0  0  0  0  0
   -6.0326   -4.4062  -22.0864 C   0  0  0  0  0  0  0  0  0  0  0  0
   -5.3585   -5.5067  -21.3218 O   0  0  0  0  0  0  0  0  0  0  0  0
   -6.4592   -4.6320  -23.5067 C   0  0  0  0  0  0  0  0  0  0  0  0
   -6.2119   -5.9582  -24.1623 C   0  0  0  0  0  0  0  0  0  0  0  0
   -6.6386   -6.1840  -25.5824 C   0  0  0  0  0  0  0  0  0  0  0  0
   -7.3126   -5.0835  -26.3470 C   0  0  0  0  0  0  0  0  0  0  0  0
   -7.7392   -5.3093  -27.7673 F   0  0  0  0  0  0  0  0  0  0  0  0
   -7.5599   -3.7572  -25.6914 C   0  0  0  0  0  0  0  0  0  0  0  0
   -7.1332   -3.5315  -24.2713 C   0  0  0  0  0  0  0  0  0  0  0  0
   -8.8504    1.3534  -24.1070 C   0  0  0  0  0  0  0  0  0  0  0  0
  -10.3200    1.6483  -24.1625 C   0  0  0  0  0  0  0  0  0  0  0  0
  -10.8044    3.0653  -24.0766 N   0  0  0  0  0  0  0  0  0  0  0  0
   -9.8192    4.1874  -23.9352 C   0  0  0  0  0  0  0  0  0  0  0  0
   -8.3495    3.8925  -23.8797 C   0  0  0  0  0  0  0  0  0  0  0  0
   -7.3641    5.0147  -23.7383 C   0  0  0  0  0  0  0  0  0  0  0  0
   -5.8945    4.7197  -23.6828 C   0  0  0  0  0  0  0  0  0  0  0  0
   -5.4102    3.3028  -23.7687 C   0  0  0  0  0  0  0  0  0  0  0  0
   -6.3954    2.1806  -23.9101 C   0  0  0  0  0  0  0  0  0  0  0  0
   -7.8650    2.4755  -23.9656 C   0  0  0  0  0  0  0  0  0  0  0  0
   -5.8532   -2.8542  -20.0106 C   0  0  0  0  0  0  0  0  0  0  0  0
   -5.3500   -1.5071  -19.5838 C   0  0  0  0  0  0  0  0  0  0  0  0
   -4.5009   -0.6940  -20.5154 C   0  0  0  0  0  0  0  0  0  0  0  0
   -3.9977    0.6531  -20.0886 C   0  0  0  0  0  0  0  0  0  0  0  0
   -3.1487    1.4662  -21.0202 O   0  0  0  0  0  0  0  0  0  0  0  0
   -4.3436    1.1871  -18.7301 N   0  0  0  0  0  0  0  0  0  0  0  0
   -5.1926    0.3739  -17.7985 C   0  0  0  0  0  0  0  0  0  0  0  0
   -5.6959   -0.9732  -18.2254 N   0  0  0  0  0  0  0  0  0  0  0  0
   -4.0133    2.0712  -18.4500 H   0  0  0  0  0  0  0  0  0  0  0  0
  2  1  1  0  0  0
  2  3  1  0  0  0
  3  4  1  0  0  0
  4 19  1  0  0  0
 19 20  2  0  0  0
 20 21  1  0  0  0
 21 22  2  0  0  0
 22 23  1  0  0  0
 23 24  2  0  0  0
 24 25  1  0  0  0
 25 26  2  0  0  0
 26 27  1  0  0  0
 27 28  2  0  0  0
  4  5  1  0  0  0
  5  6  2  0  0  0
  5  7  1  0  0  0
  7  8  1  0  0  0
  8  9  1  0  0  0
  9 29  1  0  0  0
 29 30  1  0  0  0
 30 31  2  0  0  0
 31 32  1  0  0  0
 32 33  2  0  0  0
 32 34  1  0  0  0
 34 35  1  0  0  0
 35 36  2  0  0  0
  9 10  1  0  0  0
 10 11  2  0  0  0
 10 12  1  0  0  0
 12 13  2  0  0  0
 13 14  1  0  0  0
 14 15  2  0  0  0
 15 16  1  0  0  0
 15 17  1  0  0  0
 17 18  2  0  0  0
  7  2  1  0  0  0
 36 30  1  0  0  0
 18 12  1  0  0  0
 28 19  1  0  0  0
 18  7  1  0  0  0
 28 23  1  0  0  0
 34 37  1  0  0  0
M  END
> <minimizedAffinity>
-7.83465

> <CNNscore>
0.1813401431

> <CNNaffinity>
6.2822341919

> <CNN_VS>
1.1392211914

> <CNNaffinity_variance>
0.2072430104

$$$$



 37 42  0  0  0  0  0  0  0  0999 V2000
   -8.2197   -3.8225  -26.0253 C   0  0  0  0  0  0  0  0  0  0  0  0
   -8.0929   -2.8050  -24.9304 C   0  0  0  0  0  0  0  0  0  0  0  0
   -8.7471   -1.5049  -25.2931 C   0  0  0  0  0  0  0  0  0  0  0  0
   -8.5679   -0.5590  -24.1428 N   0  0  0  0  0  0  0  0  0  0  0  0
   -7.8028   -1.2746  -23.0692 C   0  0  0  0  0  0  0  0  0  0  0  0
   -7.4018   -0.7025  -21.7419 O   0  0  0  0  0  0  0  0  0  0  0  0
   -7.5093   -2.6627  -23.5559 C   0  0  0  0  0  0  0  0  0  0  0  0
   -6.9810   -2.3735  -22.1822 C   0  0  0  0  0  0  0  0  0  0  0  0
   -6.2348   -3.4332  -21.4271 N   0  0  0  0  0  0  0  0  0  0  0  0
   -6.0170   -4.7822  -22.0457 C   0  0  0  0  0  0  0  0  0  0  0  0
   -5.2708   -5.8419  -21.2906 O   0  0  0  0  0  0  0  0  0  0  0  0
   -6.5453   -5.0715  -23.4195 C   0  0  0  0  0  0  0  0  0  0  0  0
   -6.3275   -6.4205  -24.0381 C   0  0  0  0  0  0  0  0  0  0  0  0
   -6.8558   -6.7098  -25.4118 C   0  0  0  0  0  0  0  0  0  0  0  0
   -7.6020   -5.6500  -26.1669 C   0  0  0  0  0  0  0  0  0  0  0  0
   -8.1303   -5.9394  -27.5407 F   0  0  0  0  0  0  0  0  0  0  0  0
   -7.8198   -4.3010  -25.5483 C   0  0  0  0  0  0  0  0  0  0  0  0
   -7.2915   -4.0118  -24.1746 C   0  0  0  0  0  0  0  0  0  0  0  0
   -9.0661    0.8543  -24.0776 C   0  0  0  0  0  0  0  0  0  0  0  0
   -8.1042    1.9961  -24.2219 C   0  0  0  0  0  0  0  0  0  0  0  0
   -8.6024    3.4094  -24.1567 N   0  0  0  0  0  0  0  0  0  0  0  0
  -10.0627    3.6809  -23.9471 C   0  0  0  0  0  0  0  0  0  0  0  0
  -11.0247    2.5391  -23.8028 C   0  0  0  0  0  0  0  0  0  0  0  0
  -12.4850    2.8106  -23.5932 C   0  0  0  0  0  0  0  0  0  0  0  0
  -13.4469    1.6687  -23.4489 C   0  0  0  0  0  0  0  0  0  0  0  0
  -12.9486    0.2555  -23.5141 C   0  0  0  0  0  0  0  0  0  0  0  0
  -11.4883   -0.0160  -23.7237 C   0  0  0  0  0  0  0  0  0  0  0  0
  -10.5264    1.1257  -23.8680 C   0  0  0  0  0  0  0  0  0  0  0  0
   -5.7065   -3.1439  -20.0533 C   0  0  0  0  0  0  0  0  0  0  0  0
   -5.3059   -1.7467  -19.6827 C   0  0  0  0  0  0  0  0  0  0  0  0
   -4.5434   -0.9011  -20.6591 C   0  0  0  0  0  0  0  0  0  0  0  0
   -4.1429    0.4961  -20.2885 C   0  0  0  0  0  0  0  0  0  0  0  0
   -3.3804    1.3417  -21.2650 O   0  0  0  0  0  0  0  0  0  0  0  0
   -4.5049    1.0477  -18.9413 N   0  0  0  0  0  0  0  0  0  0  0  0
   -5.2674    0.2021  -17.9649 C   0  0  0  0  0  0  0  0  0  0  0  0
   -5.6679   -1.1952  -18.3356 N   0  0  0  0  0  0  0  0  0  0  0  0
   -4.2420    1.9648  -18.6981 H   0  0  0  0  0  0  0  0  0  0  0  0
  2  1  1  0  0  0
  2  3  1  0  0  0
  3  4  1  0  0  0
  4 19  1  0  0  0
 19 20  2  0  0  0
 20 21  1  0  0  0
 21 22  2  0  0  0
 22 23  1  0  0  0
 23 24  2  0  0  0
 24 25  1  0  0  0
 25 26  2  0  0  0
 26 27  1  0  0  0
 27 28  2  0  0  0
  4  5  1  0  0  0
  5  6  2  0  0  0
  5  7  1  0  0  0
  7  8  1  0  0  0
  8  9  1  0  0  0
  9 29  1  0  0  0
 29 30  1  0  0  0
 30 31  2  0  0  0
 31 32  1  0  0  0
 32 33  2  0  0  0
 32 34  1  0  0  0
 34 35  1  0  0  0
 35 36  2  0  0  0
  9 10  1  0  0  0
 10 11  2  0  0  0
 10 12  1  0  0  0
 12 13  2  0  0  0
 13 14  1  0  0  0
 14 15  2  0  0  0
 15 16  1  0  0  0
 15 17  1  0  0  0
 17 18  2  0  0  0
  7  2  1  0  0  0
 36 30  1  0  0  0
 18 12  1  0  0  0
 28 19  1  0  0  0
 18  7  1  0  0  0
 28 23  1  0  0  0
 34 37  1  0  0  0
M  END
> <minimizedAffinity>
-9.20905

> <CNNscore>
0.1675798893

> <CNNaffinity>
6.3325357437

> <CNN_VS>
1.0612056255

> <CNNaffinity_variance>
0.1489977539

$$$$



 37 42  0  0  0  0  0  0  0  0999 V2000
   -4.5721   -0.4691  -21.7848 C   0  0  0  0  0  0  0  0  0  0  0  0
   -5.7769   -0.9423  -22.5429 C   0  0  0  0  0  0  0  0  0  0  0  0
   -5.8138   -2.4371  -22.6630 C   0  0  0  0  0  0  0  0  0  0  0  0
   -7.0468   -2.8100  -23.4315 N   0  0  0  0  0  0  0  0  0  0  0  0
   -7.7719   -1.5458  -23.7864 C   0  0  0  0  0  0  0  0  0  0  0  0
   -9.0563   -1.4523  -24.5555 O   0  0  0  0  0  0  0  0  0  0  0  0
   -6.9870   -0.3915  -23.2372 C   0  0  0  0  0  0  0  0  0  0  0  0
   -8.2357    0.0108  -23.9645 C   0  0  0  0  0  0  0  0  0  0  0  0
   -8.5975    1.4613  -24.0879 N   0  0  0  0  0  0  0  0  0  0  0  0
   -7.7106    2.5095  -23.4841 C   0  0  0  0  0  0  0  0  0  0  0  0
   -8.0724    3.9599  -23.6076 O   0  0  0  0  0  0  0  0  0  0  0  0
   -6.4619    2.1072  -22.7568 C   0  0  0  0  0  0  0  0  0  0  0  0
   -5.5750    3.1554  -22.1530 C   0  0  0  0  0  0  0  0  0  0  0  0
   -4.3263    2.7532  -21.4257 C   0  0  0  0  0  0  0  0  0  0  0  0
   -3.9645    1.3027  -21.3022 C   0  0  0  0  0  0  0  0  0  0  0  0
   -2.7158    0.9005  -20.5749 F   0  0  0  0  0  0  0  0  0  0  0  0
   -4.8514    0.2545  -21.9061 C   0  0  0  0  0  0  0  0  0  0  0  0
   -6.1001    0.6568  -22.6333 C   0  0  0  0  0  0  0  0  0  0  0  0
   -7.4788   -4.2027  -23.7834 C   0  0  0  0  0  0  0  0  0  0  0  0
   -7.2880   -5.3183  -22.7992 C   0  0  0  0  0  0  0  0  0  0  0  0
   -7.7201   -6.7110  -23.1511 N   0  0  0  0  0  0  0  0  0  0  0  0
   -8.3430   -6.9879  -24.4872 C   0  0  0  0  0  0  0  0  0  0  0  0
   -8.5338   -5.8722  -25.4715 C   0  0  0  0  0  0  0  0  0  0  0  0
   -9.1568   -6.1492  -26.8077 C   0  0  0  0  0  0  0  0  0  0  0  0
   -9.3475   -5.0334  -27.7919 C   0  0  0  0  0  0  0  0  0  0  0  0
   -8.9155   -3.6408  -27.4399 C   0  0  0  0  0  0  0  0  0  0  0  0
   -8.2926   -3.3639  -26.1038 C   0  0  0  0  0  0  0  0  0  0  0  0
   -8.1018   -4.4795  -25.1196 C   0  0  0  0  0  0  0  0  0  0  0  0
   -9.8462    1.8635  -24.8153 C   0  0  0  0  0  0  0  0  0  0  0  0
  -11.1870    1.6519  -24.1770 C   0  0  0  0  0  0  0  0  0  0  0  0
  -11.8805    2.7927  -23.4931 C   0  0  0  0  0  0  0  0  0  0  0  0
  -13.2213    2.5811  -22.8548 C   0  0  0  0  0  0  0  0  0  0  0  0
  -13.9148    3.7218  -22.1709 O   0  0  0  0  0  0  0  0  0  0  0  0
  -13.8688    1.2287  -22.9005 N   0  0  0  0  0  0  0  0  0  0  0  0
  -13.1753    0.0880  -23.5845 C   0  0  0  0  0  0  0  0  0  0  0  0
  -11.8344    0.2996  -24.2228 N   0  0  0  0  0  0  0  0  0  0  0  0
  -14.7488    1.0898  -22.4816 H   0  0  0  0  0  0  0  0  0  0  0  0
  2  1  1  0  0  0
  2  3  1  0  0  0
  3  4  1  0  0  0
  4 19  1  0  0  0
 19 20  2  0  0  0
 20 21  1  0  0  0
 21 22  2  0  0  0
 22 23  1  0  0  0
 23 24  2  0  0  0
 24 25  1  0  0  0
 25 26  2  0  0  0
 26 27  1  0  0  0
 27 28  2  0  0  0
  4  5  1  0  0  0
  5  6  2  0  0  0
  5  7  1  0  0  0
  7  8  1  0  0  0
  8  9  1  0  0  0
  9 29  1  0  0  0
 29 30  1  0  0  0
 30 31  2  0  0  0
 31 32  1  0  0  0
 32 33  2  0  0  0
 32 34  1  0  0  0
 34 35  1  0  0  0
 35 36  2  0  0  0
  9 10  1  0  0  0
 10 11  2  0  0  0
 10 12  1  0  0  0
 12 13  2  0  0  0
 13 14  1  0  0  0
 14 15  2  0  0  0
 15 16  1  0  0  0
 15 17  1  0  0  0
 17 18  2  0  0  0
  7  2  1  0  0  0
 36 30  1  0  0  0
 18 12  1  0  0  0
 28 19  1  0  0  0
 18  7  1  0  0  0
 28 23  1  0  0  0
 34 37  1  0  0  0
M  END
> <minimizedAffinity>
-8.15042

> <CNNscore>
0.1616456509

> <CNNaffinity>
6.3787555695

> <CNN_VS>
1.0310981274

> <CNNaffinity_variance>
0.2289670706

$$$$



 37 42  0  0  0  0  0  0  0  0999 V2000
   -6.5514    2.2492  -22.1827 C   0  0  0  0  0  0  0  0  0  0  0  0
   -7.8426    1.7315  -22.7439 C   0  0  0  0  0  0  0  0  0  0  0  0
   -8.7970    2.8410  -23.0730 C   0  0  0  0  0  0  0  0  0  0  0  0
  -10.0496    2.2266  -23.6239 N   0  0  0  0  0  0  0  0  0  0  0  0
   -9.8694    0.7375  -23.6352 C   0  0  0  0  0  0  0  0  0  0  0  0
  -10.8764   -0.2689  -24.1075 O   0  0  0  0  0  0  0  0  0  0  0  0
   -8.5053    0.4315  -23.0913 C   0  0  0  0  0  0  0  0  0  0  0  0
   -9.2919   -0.7836  -23.4848 C   0  0  0  0  0  0  0  0  0  0  0  0
   -8.6953   -2.1497  -23.3178 N   0  0  0  0  0  0  0  0  0  0  0  0
   -7.3123   -2.3007  -22.7572 C   0  0  0  0  0  0  0  0  0  0  0  0
   -6.7157   -3.6668  -22.5901 O   0  0  0  0  0  0  0  0  0  0  0  0
   -6.5257   -1.0855  -22.3636 C   0  0  0  0  0  0  0  0  0  0  0  0
   -5.1426   -1.2365  -21.8030 C   0  0  0  0  0  0  0  0  0  0  0  0
   -4.3561   -0.0215  -21.4095 C   0  0  0  0  0  0  0  0  0  0  0  0
   -4.9526    1.3446  -21.5766 C   0  0  0  0  0  0  0  0  0  0  0  0
   -4.1660    2.5598  -21.1831 F   0  0  0  0  0  0  0  0  0  0  0  0
   -6.3357    1.4957  -22.1372 C   0  0  0  0  0  0  0  0  0  0  0  0
   -7.1222    0.2806  -22.5307 C   0  0  0  0  0  0  0  0  0  0  0  0
  -11.2685    2.9706  -24.0829 C   0  0  0  0  0  0  0  0  0  0  0  0
  -12.5376    2.8947  -23.2869 C   0  0  0  0  0  0  0  0  0  0  0  0
  -13.7565    3.6388  -23.7458 N   0  0  0  0  0  0  0  0  0  0  0  0
  -13.7062    4.4587  -25.0009 C   0  0  0  0  0  0  0  0  0  0  0  0
  -12.4371    4.5347  -25.7969 C   0  0  0  0  0  0  0  0  0  0  0  0
  -12.3870    5.3548  -27.0520 C   0  0  0  0  0  0  0  0  0  0  0  0
  -11.1178    5.4306  -27.8479 C   0  0  0  0  0  0  0  0  0  0  0  0
   -9.8990    4.6866  -27.3889 C   0  0  0  0  0  0  0  0  0  0  0  0
   -9.9492    3.8666  -26.1339 C   0  0  0  0  0  0  0  0  0  0  0  0
  -11.2183    3.7906  -25.3379 C   0  0  0  0  0  0  0  0  0  0  0  0
   -9.4819   -3.3648  -23.7113 C   0  0  0  0  0  0  0  0  0  0  0  0
   -9.3110   -3.9587  -25.0780 C   0  0  0  0  0  0  0  0  0  0  0  0
   -8.9600   -5.4094  -25.2269 C   0  0  0  0  0  0  0  0  0  0  0  0
   -8.7891   -6.0033  -26.5936 C   0  0  0  0  0  0  0  0  0  0  0  0
   -8.4381   -7.4540  -26.7425 O   0  0  0  0  0  0  0  0  0  0  0  0
   -8.9691   -5.1464  -27.8116 N   0  0  0  0  0  0  0  0  0  0  0  0
   -9.3200   -3.6957  -27.6628 C   0  0  0  0  0  0  0  0  0  0  0  0
   -9.4910   -3.1018  -26.2959 N   0  0  0  0  0  0  0  0  0  0  0  0
   -8.8568   -5.5362  -28.7087 H   0  0  0  0  0  0  0  0  0  0  0  0
  2  1  1  0  0  0
  2  3  1  0  0  0
  3  4  1  0  0  0
  4 19  1  0  0  0
 19 20  2  0  0  0
 20 21  1  0  0  0
 21 22  2  0  0  0
 22 23  1  0  0  0
 23 24  2  0  0  0
 24 25  1  0  0  0
 25 26  2  0  0  0
 26 27  1  0  0  0
 27 28  2  0  0  0
  4  5  1  0  0  0
  5  6  2  0  0  0
  5  7  1  0  0  0
  7  8  1  0  0  0
  8  9  1  0  0  0
  9 29  1  0  0  0
 29 30  1  0  0  0
 30 31  2  0  0  0
 31 32  1  0  0  0
 32 33  2  0  0  0
 32 34  1  0  0  0
 34 35  1  0  0  0
 35 36  2  0  0  0
  9 10  1  0  0  0
 10 11  2  0  0  0
 10 12  1  0  0  0
 12 13  2  0  0  0
 13 14  1  0  0  0
 14 15  2  0  0  0
 15 16  1  0  0  0
 15 17  1  0  0  0
 17 18  2  0  0  0
  7  2  1  0  0  0
 36 30  1  0  0  0
 18 12  1  0  0  0
 28 19  1  0  0  0
 18  7  1  0  0  0
 28 23  1  0  0  0
 34 37  1  0  0  0
M  END
> <minimizedAffinity>
-8.40736

> <CNNscore>
0.1503685564

> <CNNaffinity>
6.0317401886

> <CNN_VS>
0.9069840908

> <CNNaffinity_variance>
0.1954132915

$$$$
