


 38 42  0  0  0  0  0  0  0  0999 V2000
    7.0747   -3.4631   23.0038 N   0  0  0  0  0  0  0  0  0  0  0  0
    7.3470   -2.0866   22.4734 C   0  0  0  0  0  0  0  0  0  0  0  0
    8.5309   -1.3117   22.9711 C   0  0  0  0  0  0  0  0  0  0  0  0
    9.6698   -0.4217   23.3720 C   0  0  0  0  0  0  0  0  0  0  0  0
   10.6322   -0.4185   24.1137 O   0  0  0  0  0  0  0  0  0  0  0  0
    9.5549    0.8564   22.5953 N   0  0  0  0  0  0  0  0  0  0  0  0
    8.3449    0.7563   21.7145 C   0  0  0  0  0  0  0  0  0  0  0  0
    7.7121   -0.5837   21.9467 C   0  0  0  0  0  0  0  0  0  0  0  0
    9.4427   -1.9133   23.9992 C   0  0  0  0  0  0  0  0  0  0  0  0
   10.6267   -1.1384   24.4968 C   0  0  0  0  0  0  0  0  0  0  0  0
   11.5384   -1.7399   25.5249 C   0  0  0  0  0  0  0  0  0  0  0  0
   12.7224   -0.9650   26.0226 Cl  0  0  0  0  0  0  0  0  0  0  0  0
   11.2661   -3.1163   26.0553 C   0  0  0  0  0  0  0  0  0  0  0  0
   10.0821   -3.8912   25.5576 C   0  0  0  0  0  0  0  0  0  0  0  0
    9.1705   -3.2897   24.5296 C   0  0  0  0  0  0  0  0  0  0  0  0
    7.9864   -4.0646   24.0319 C   0  0  0  0  0  0  0  0  0  0  0  0
    7.7141   -5.4410   24.5623 O   0  0  0  0  0  0  0  0  0  0  0  0
   10.4864    2.0288   22.6840 C   0  0  0  0  0  0  0  0  0  0  0  0
   11.9657    1.8237   22.5442 C   0  0  0  0  0  0  0  0  0  0  0  0
   12.8972    2.9960   22.6329 N   0  0  0  0  0  0  0  0  0  0  0  0
   12.3494    4.3735   22.8615 C   0  0  0  0  0  0  0  0  0  0  0  0
   10.8700    4.5787   23.0013 C   0  0  0  0  0  0  0  0  0  0  0  0
   10.3222    5.9563   23.2299 C   0  0  0  0  0  0  0  0  0  0  0  0
    8.8429    6.1614   23.3698 C   0  0  0  0  0  0  0  0  0  0  0  0
    7.9114    4.9890   23.2811 C   0  0  0  0  0  0  0  0  0  0  0  0
    8.4592    3.6115   23.0525 C   0  0  0  0  0  0  0  0  0  0  0  0
    9.9386    3.4063   22.9126 C   0  0  0  0  0  0  0  0  0  0  0  0
    6.4772   -1.1042   21.2728 N   0  0  0  0  0  0  0  0  0  0  0  0
    6.1835   -0.7278   19.8509 C   0  0  0  0  0  0  0  0  0  0  0  0
    4.9486   -1.2483   19.1770 C   0  0  0  0  0  0  0  0  0  0  0  0
    7.1247    0.1692   19.1027 O   0  0  0  0  0  0  0  0  0  0  0  0
    5.8595   -1.6929   21.7638 H   0  0  0  0  0  0  0  0  0  0  0  0
    5.8907   -4.2380   22.5061 C   0  0  0  0  0  0  0  0  0  0  0  0
    4.6760   -7.3138   24.7002 C   0  0  0  0  0  0  0  0  0  0  0  0
    4.9002   -5.9056   24.2347 N   0  0  0  0  0  0  0  0  0  0  0  0
    5.6665   -5.6462   22.9716 C   0  0  0  0  0  0  0  0  0  0  0  0
    6.2086   -6.7951   22.1739 O   0  0  0  0  0  0  0  0  0  0  0  0
    4.5444   -5.1515   24.7583 H   0  0  0  0  0  0  0  0  0  0  0  0
 34 35  1  0  0  0
 35 36  1  0  0  0
 36 37  2  0  0  0
 36 33  1  0  0  0
 33  1  1  0  0  0
  1  2  1  0  0  0
  3  2  1  0  0  0
  3  4  1  0  0  0
  4  5  2  0  0  0
  4  6  1  0  0  0
  6 18  1  0  0  0
 18 19  2  0  0  0
 19 20  1  0  0  0
 20 21  2  0  0  0
 21 22  1  0  0  0
 22 23  2  0  0  0
 23 24  1  0  0  0
 24 25  2  0  0  0
 25 26  1  0  0  0
 26 27  2  0  0  0
  6  7  1  0  0  0
  7  8  1  0  0  0
  8 28  1  0  0  0
 28 29  1  0  0  0
 29 30  1  0  0  0
 29 31  2  0  0  0
  3  9  1  0  0  0
  9 10  2  0  0  0
 10 11  1  0  0  0
 11 12  1  0  0  0
 11 13  2  0  0  0
 13 14  1  0  0  0
 14 15  2  0  0  0
 15 16  1  0  0  0
 16 17  2  0  0  0
 16  1  1  0  0  0
  8  3  1  0  0  0
 15  9  1  0  0  0
 27 18  1  0  0  0
 27 22  1  0  0  0
 35 38  1  0  0  0
 28 32  1  0  0  0
M  END
> <minimizedAffinity>
-7.98344

> <CNNscore>
0.4772658944

> <CNNaffinity>
6.6419191360

> <CNN_VS>
3.1699614525

> <CNNaffinity_variance>
0.0881542712

$$$$



 38 42  0  0  0  0  0  0  0  0999 V2000
   10.4648    4.2682   22.6332 N   0  0  0  0  0  0  0  0  0  0  0  0
    9.1381    3.7329   23.0840 C   0  0  0  0  0  0  0  0  0  0  0  0
    9.0079    2.2942   23.4879 C   0  0  0  0  0  0  0  0  0  0  0  0
    8.7261    0.8856   23.9196 C   0  0  0  0  0  0  0  0  0  0  0  0
    9.2985   -0.1769   24.0606 O   0  0  0  0  0  0  0  0  0  0  0  0
    7.2741    0.7943   24.2848 N   0  0  0  0  0  0  0  0  0  0  0  0
    6.6585    2.1465   24.0788 C   0  0  0  0  0  0  0  0  0  0  0  0
    7.7300    3.0735   23.5863 C   0  0  0  0  0  0  0  0  0  0  0  0
   10.2044    1.3907   23.4409 C   0  0  0  0  0  0  0  0  0  0  0  0
   10.0742   -0.0480   23.8447 C   0  0  0  0  0  0  0  0  0  0  0  0
   11.2707   -0.9514   23.7977 C   0  0  0  0  0  0  0  0  0  0  0  0
   11.1406   -2.3901   24.2016 Cl  0  0  0  0  0  0  0  0  0  0  0  0
   12.5974   -0.4160   23.3468 C   0  0  0  0  0  0  0  0  0  0  0  0
   12.7276    1.0227   22.9430 C   0  0  0  0  0  0  0  0  0  0  0  0
   11.5311    1.9260   22.9900 C   0  0  0  0  0  0  0  0  0  0  0  0
   11.6613    3.3648   22.5861 C   0  0  0  0  0  0  0  0  0  0  0  0
   12.9880    3.9002   22.1352 O   0  0  0  0  0  0  0  0  0  0  0  0
    6.5627   -0.4337   24.7707 C   0  0  0  0  0  0  0  0  0  0  0  0
    6.3256   -1.5825   23.8357 C   0  0  0  0  0  0  0  0  0  0  0  0
    5.6142   -2.8104   24.3216 N   0  0  0  0  0  0  0  0  0  0  0  0
    5.1399   -2.8895   25.7424 C   0  0  0  0  0  0  0  0  0  0  0  0
    5.3770   -1.7407   26.6774 C   0  0  0  0  0  0  0  0  0  0  0  0
    4.9026   -1.8199   28.0983 C   0  0  0  0  0  0  0  0  0  0  0  0
    5.1398   -0.6711   29.0331 C   0  0  0  0  0  0  0  0  0  0  0  0
    5.8512    0.5568   28.5472 C   0  0  0  0  0  0  0  0  0  0  0  0
    6.3255    0.6360   27.1264 C   0  0  0  0  0  0  0  0  0  0  0  0
    6.0884   -0.5128   26.1915 C   0  0  0  0  0  0  0  0  0  0  0  0
    7.5544    4.5249   23.2510 N   0  0  0  0  0  0  0  0  0  0  0  0
    6.6085    5.3704   24.0511 C   0  0  0  0  0  0  0  0  0  0  0  0
    6.4329    6.8219   23.7159 C   0  0  0  0  0  0  0  0  0  0  0  0
    5.8381    4.7644   25.1866 O   0  0  0  0  0  0  0  0  0  0  0  0
    8.0601    4.9226   22.5058 H   0  0  0  0  0  0  0  0  0  0  0  0
   10.5949    5.7070   22.2293 C   0  0  0  0  0  0  0  0  0  0  0  0
   10.3019    7.8191   25.5764 C   0  0  0  0  0  0  0  0  0  0  0  0
   10.0475    6.7683   24.5366 N   0  0  0  0  0  0  0  0  0  0  0  0
   10.8494    6.7577   23.2691 C   0  0  0  0  0  0  0  0  0  0  0  0
   11.9059    7.7980   23.0412 O   0  0  0  0  0  0  0  0  0  0  0  0
    9.3541    6.0856   24.6861 H   0  0  0  0  0  0  0  0  0  0  0  0
 34 35  1  0  0  0
 35 36  1  0  0  0
 36 37  2  0  0  0
 36 33  1  0  0  0
 33  1  1  0  0  0
  1  2  1  0  0  0
  3  2  1  0  0  0
  3  4  1  0  0  0
  4  5  2  0  0  0
  4  6  1  0  0  0
  6 18  1  0  0  0
 18 19  2  0  0  0
 19 20  1  0  0  0
 20 21  2  0  0  0
 21 22  1  0  0  0
 22 23  2  0  0  0
 23 24  1  0  0  0
 24 25  2  0  0  0
 25 26  1  0  0  0
 26 27  2  0  0  0
  6  7  1  0  0  0
  7  8  1  0  0  0
  8 28  1  0  0  0
 28 29  1  0  0  0
 29 30  1  0  0  0
 29 31  2  0  0  0
  3  9  1  0  0  0
  9 10  2  0  0  0
 10 11  1  0  0  0
 11 12  1  0  0  0
 11 13  2  0  0  0
 13 14  1  0  0  0
 14 15  2  0  0  0
 15 16  1  0  0  0
 16 17  2  0  0  0
 16  1  1  0  0  0
  8  3  1  0  0  0
 15  9  1  0  0  0
 27 18  1  0  0  0
 27 22  1  0  0  0
 35 38  1  0  0  0
 28 32  1  0  0  0
M  END
> <minimizedAffinity>
-6.82462

> <CNNscore>
0.4509144425

> <CNNaffinity>
6.6037025452

> <CNN_VS>
2.9777047634

> <CNNaffinity_variance>
0.3933148384

$$$$



 38 42  0  0  0  0  0  0  0  0999 V2000
   10.1358    3.6056   22.7942 N   0  0  0  0  0  0  0  0  0  0  0  0
    8.8062    2.9783   23.0923 C   0  0  0  0  0  0  0  0  0  0  0  0
    8.7323    1.5385   23.5065 C   0  0  0  0  0  0  0  0  0  0  0  0
    8.5027    0.1178   23.9293 C   0  0  0  0  0  0  0  0  0  0  0  0
    9.1290   -0.8975   24.1598 O   0  0  0  0  0  0  0  0  0  0  0  0
    7.0274   -0.0770   24.1183 N   0  0  0  0  0  0  0  0  0  0  0  0
    6.3452    1.2234   23.8123 C   0  0  0  0  0  0  0  0  0  0  0  0
    7.3989    2.2218   23.4341 C   0  0  0  0  0  0  0  0  0  0  0  0
    9.9878    0.7260   23.6225 C   0  0  0  0  0  0  0  0  0  0  0  0
    9.9138   -0.7138   24.0366 C   0  0  0  0  0  0  0  0  0  0  0  0
   11.1694   -1.5262   24.1526 C   0  0  0  0  0  0  0  0  0  0  0  0
   11.0954   -2.9661   24.5667 Cl  0  0  0  0  0  0  0  0  0  0  0  0
   12.4989   -0.8989   23.8544 C   0  0  0  0  0  0  0  0  0  0  0  0
   12.5729    0.5408   23.4403 C   0  0  0  0  0  0  0  0  0  0  0  0
   11.3173    1.3533   23.3243 C   0  0  0  0  0  0  0  0  0  0  0  0
   11.3913    2.7931   22.9102 C   0  0  0  0  0  0  0  0  0  0  0  0
   12.7208    3.4204   22.6120 O   0  0  0  0  0  0  0  0  0  0  0  0
    6.3528   -1.3488   24.5394 C   0  0  0  0  0  0  0  0  0  0  0  0
    6.1621   -2.4599   23.5499 C   0  0  0  0  0  0  0  0  0  0  0  0
    5.4875   -3.7317   23.9710 N   0  0  0  0  0  0  0  0  0  0  0  0
    5.0036   -3.8925   25.3817 C   0  0  0  0  0  0  0  0  0  0  0  0
    5.1944   -2.7814   26.3712 C   0  0  0  0  0  0  0  0  0  0  0  0
    4.7104   -2.9422   27.7819 C   0  0  0  0  0  0  0  0  0  0  0  0
    4.9012   -1.8311   28.7714 C   0  0  0  0  0  0  0  0  0  0  0  0
    5.5758   -0.5593   28.3503 C   0  0  0  0  0  0  0  0  0  0  0  0
    6.0597   -0.3985   26.9396 C   0  0  0  0  0  0  0  0  0  0  0  0
    5.8689   -1.5096   25.9501 C   0  0  0  0  0  0  0  0  0  0  0  0
    7.1609    3.6524   23.0509 N   0  0  0  0  0  0  0  0  0  0  0  0
    6.1986    3.9836   21.9490 C   0  0  0  0  0  0  0  0  0  0  0  0
    5.9606    5.4141   21.5658 C   0  0  0  0  0  0  0  0  0  0  0  0
    5.4742    2.8841   21.2303 O   0  0  0  0  0  0  0  0  0  0  0  0
    7.6363    4.3740   23.5226 H   0  0  0  0  0  0  0  0  0  0  0  0
   10.2097    5.0455   22.3800 C   0  0  0  0  0  0  0  0  0  0  0  0
   10.7645    7.8256   25.1572 C   0  0  0  0  0  0  0  0  0  0  0  0
   11.0490    6.7426   24.1591 N   0  0  0  0  0  0  0  0  0  0  0  0
    9.9253    6.1285   23.3781 C   0  0  0  0  0  0  0  0  0  0  0  0
    8.5170    6.5973   23.5952 O   0  0  0  0  0  0  0  0  0  0  0  0
   11.9732    6.4349   24.0167 H   0  0  0  0  0  0  0  0  0  0  0  0
 34 35  1  0  0  0
 35 36  1  0  0  0
 36 37  2  0  0  0
 36 33  1  0  0  0
 33  1  1  0  0  0
  1  2  1  0  0  0
  3  2  1  0  0  0
  3  4  1  0  0  0
  4  5  2  0  0  0
  4  6  1  0  0  0
  6 18  1  0  0  0
 18 19  2  0  0  0
 19 20  1  0  0  0
 20 21  2  0  0  0
 21 22  1  0  0  0
 22 23  2  0  0  0
 23 24  1  0  0  0
 24 25  2  0  0  0
 25 26  1  0  0  0
 26 27  2  0  0  0
  6  7  1  0  0  0
  7  8  1  0  0  0
  8 28  1  0  0  0
 28 29  1  0  0  0
 29 30  1  0  0  0
 29 31  2  0  0  0
  3  9  1  0  0  0
  9 10  2  0  0  0
 10 11  1  0  0  0
 11 12  1  0  0  0
 11 13  2  0  0  0
 13 14  1  0  0  0
 14 15  2  0  0  0
 15 16  1  0  0  0
 16 17  2  0  0  0
 16  1  1  0  0  0
  8  3  1  0  0  0
 15  9  1  0  0  0
 27 18  1  0  0  0
 27 22  1  0  0  0
 35 38  1  0  0  0
 28 32  1  0  0  0
M  END
> <minimizedAffinity>
-7.17453

> <CNNscore>
0.3931597471

> <CNNaffinity>
6.5072698593

> <CNN_VS>
2.5583965778

> <CNNaffinity_variance>
0.5897524953

$$$$



 38 42  0  0  0  0  0  0  0  0999 V2000
    3.9066    2.8499   21.3203 N   0  0  0  0  0  0  0  0  0  0  0  0
    4.5866    1.5220   21.1648 C   0  0  0  0  0  0  0  0  0  0  0  0
    5.2665    0.8852   22.3405 C   0  0  0  0  0  0  0  0  0  0  0  0
    5.9837    0.1301   23.4200 C   0  0  0  0  0  0  0  0  0  0  0  0
    6.2624    0.2305   24.5984 O   0  0  0  0  0  0  0  0  0  0  0  0
    6.5091   -1.1426   22.8248 N   0  0  0  0  0  0  0  0  0  0  0  0
    6.1166   -1.1740   21.3774 C   0  0  0  0  0  0  0  0  0  0  0  0
    5.3486    0.0792   21.0781 C   0  0  0  0  0  0  0  0  0  0  0  0
    5.2664    1.5764   23.6718 C   0  0  0  0  0  0  0  0  0  0  0  0
    5.9463    0.9397   24.8475 C   0  0  0  0  0  0  0  0  0  0  0  0
    5.9462    1.6309   26.1787 C   0  0  0  0  0  0  0  0  0  0  0  0
    6.6261    0.9941   27.3545 Cl  0  0  0  0  0  0  0  0  0  0  0  0
    5.2662    2.9588   26.3342 C   0  0  0  0  0  0  0  0  0  0  0  0
    4.5863    3.5956   25.1585 C   0  0  0  0  0  0  0  0  0  0  0  0
    4.5864    2.9044   23.8273 C   0  0  0  0  0  0  0  0  0  0  0  0
    3.9065    3.5411   22.6516 C   0  0  0  0  0  0  0  0  0  0  0  0
    3.2266    4.8691   22.8071 O   0  0  0  0  0  0  0  0  0  0  0  0
    7.2899   -2.1984   23.5498 C   0  0  0  0  0  0  0  0  0  0  0  0
    8.4963   -1.8182   24.3561 C   0  0  0  0  0  0  0  0  0  0  0  0
    9.2771   -2.8740   25.0810 N   0  0  0  0  0  0  0  0  0  0  0  0
    8.8515   -4.3101   24.9997 C   0  0  0  0  0  0  0  0  0  0  0  0
    7.6451   -4.6903   24.1934 C   0  0  0  0  0  0  0  0  0  0  0  0
    7.2195   -6.1264   24.1121 C   0  0  0  0  0  0  0  0  0  0  0  0
    6.0131   -6.5065   23.3057 C   0  0  0  0  0  0  0  0  0  0  0  0
    5.2323   -5.4507   22.5808 C   0  0  0  0  0  0  0  0  0  0  0  0
    5.6579   -4.0146   22.6621 C   0  0  0  0  0  0  0  0  0  0  0  0
    6.8643   -3.6344   23.4684 C   0  0  0  0  0  0  0  0  0  0  0  0
    4.7652    0.4597   19.7496 N   0  0  0  0  0  0  0  0  0  0  0  0
    5.6155    0.4094   18.5150 C   0  0  0  0  0  0  0  0  0  0  0  0
    5.0321    0.7899   17.1865 C   0  0  0  0  0  0  0  0  0  0  0  0
    7.0493   -0.0213   18.6088 O   0  0  0  0  0  0  0  0  0  0  0  0
    3.8242    0.7424   19.6880 H   0  0  0  0  0  0  0  0  0  0  0  0
    3.2267    3.4867   20.1446 C   0  0  0  0  0  0  0  0  0  0  0  0
   -0.6003    4.2560   19.4289 C   0  0  0  0  0  0  0  0  0  0  0  0
    0.8699    4.4596   19.6458 N   0  0  0  0  0  0  0  0  0  0  0  0
    1.7565    3.2830   19.9276 C   0  0  0  0  0  0  0  0  0  0  0  0
    1.1730    1.9027   19.9924 O   0  0  0  0  0  0  0  0  0  0  0  0
    1.2529    5.3656   19.6033 H   0  0  0  0  0  0  0  0  0  0  0  0
 34 35  1  0  0  0
 35 36  1  0  0  0
 36 37  2  0  0  0
 36 33  1  0  0  0
 33  1  1  0  0  0
  1  2  1  0  0  0
  3  2  1  0  0  0
  3  4  1  0  0  0
  4  5  2  0  0  0
  4  6  1  0  0  0
  6 18  1  0  0  0
 18 19  2  0  0  0
 19 20  1  0  0  0
 20 21  2  0  0  0
 21 22  1  0  0  0
 22 23  2  0  0  0
 23 24  1  0  0  0
 24 25  2  0  0  0
 25 26  1  0  0  0
 26 27  2  0  0  0
  6  7  1  0  0  0
  7  8  1  0  0  0
  8 28  1  0  0  0
 28 29  1  0  0  0
 29 30  1  0  0  0
 29 31  2  0  0  0
  3  9  1  0  0  0
  9 10  2  0  0  0
 10 11  1  0  0  0
 11 12  1  0  0  0
 11 13  2  0  0  0
 13 14  1  0  0  0
 14 15  2  0  0  0
 15 16  1  0  0  0
 16 17  2  0  0  0
 16  1  1  0  0  0
  8  3  1  0  0  0
 15  9  1  0  0  0
 27 18  1  0  0  0
 27 22  1  0  0  0
 35 38  1  0  0  0
 28 32  1  0  0  0
M  END
> <minimizedAffinity>
-7.32130

> <CNNscore>
0.3600584567

> <CNNaffinity>
6.1965303421

> <CNN_VS>
2.2311131954

> <CNNaffinity_variance>
0.0491372421

$$$$



 38 42  0  0  0  0  0  0  0  0999 V2000
   10.6077    1.5586   22.9146 N   0  0  0  0  0  0  0  0  0  0  0  0
    9.2353    1.2681   23.4457 C   0  0  0  0  0  0  0  0  0  0  0  0
    9.0198    0.1091   24.3732 C   0  0  0  0  0  0  0  0  0  0  0  0
    8.6528   -1.0087   25.3037 C   0  0  0  0  0  0  0  0  0  0  0  0
    9.1696   -1.9383   25.8913 O   0  0  0  0  0  0  0  0  0  0  0  0
    7.1796   -0.9233   25.5726 N   0  0  0  0  0  0  0  0  0  0  0  0
    6.6361    0.2473   24.8083 C   0  0  0  0  0  0  0  0  0  0  0  0
    7.7734    0.8853   24.0670 C   0  0  0  0  0  0  0  0  0  0  0  0
   10.1768   -0.7595   24.7696 C   0  0  0  0  0  0  0  0  0  0  0  0
    9.9613   -1.9185   25.6970 C   0  0  0  0  0  0  0  0  0  0  0  0
   11.1182   -2.7870   26.0934 C   0  0  0  0  0  0  0  0  0  0  0  0
   10.9028   -3.9461   27.0209 Cl  0  0  0  0  0  0  0  0  0  0  0  0
   12.4907   -2.4965   25.5623 C   0  0  0  0  0  0  0  0  0  0  0  0
   12.7061   -1.3375   24.6349 C   0  0  0  0  0  0  0  0  0  0  0  0
   11.5492   -0.4690   24.2385 C   0  0  0  0  0  0  0  0  0  0  0  0
   11.7647    0.6901   23.3110 C   0  0  0  0  0  0  0  0  0  0  0  0
   13.1371    0.9806   22.7799 O   0  0  0  0  0  0  0  0  0  0  0  0
    6.3888   -1.8464   26.4516 C   0  0  0  0  0  0  0  0  0  0  0  0
    6.1755   -3.2733   26.0410 C   0  0  0  0  0  0  0  0  0  0  0  0
    5.3847   -4.1964   26.9199 N   0  0  0  0  0  0  0  0  0  0  0  0
    4.8073   -3.6926   28.2094 C   0  0  0  0  0  0  0  0  0  0  0  0
    5.0206   -2.2657   28.6200 C   0  0  0  0  0  0  0  0  0  0  0  0
    4.4432   -1.7620   29.9095 C   0  0  0  0  0  0  0  0  0  0  0  0
    4.6566   -0.3351   30.3200 C   0  0  0  0  0  0  0  0  0  0  0  0
    5.4474    0.5880   29.4411 C   0  0  0  0  0  0  0  0  0  0  0  0
    6.0248    0.0842   28.1516 C   0  0  0  0  0  0  0  0  0  0  0  0
    5.8114   -1.3426   27.7410 C   0  0  0  0  0  0  0  0  0  0  0  0
    7.6805    2.0884   23.1760 N   0  0  0  0  0  0  0  0  0  0  0  0
    6.4354    2.3356   22.3769 C   0  0  0  0  0  0  0  0  0  0  0  0
    6.3426    3.5387   21.4858 C   0  0  0  0  0  0  0  0  0  0  0  0
    5.2831    1.3796   22.4688 O   0  0  0  0  0  0  0  0  0  0  0  0
    8.4367    2.7159   23.1157 H   0  0  0  0  0  0  0  0  0  0  0  0
   10.8232    2.7177   21.9871 C   0  0  0  0  0  0  0  0  0  0  0  0
   10.6687    6.3870   23.4912 C   0  0  0  0  0  0  0  0  0  0  0  0
   10.2333    5.0598   22.9444 N   0  0  0  0  0  0  0  0  0  0  0  0
   11.2586    4.0448   22.5339 C   0  0  0  0  0  0  0  0  0  0  0  0
   12.7195    4.3571   22.6702 O   0  0  0  0  0  0  0  0  0  0  0  0
    9.2745    4.8549   22.8550 H   0  0  0  0  0  0  0  0  0  0  0  0
 34 35  1  0  0  0
 35 36  1  0  0  0
 36 37  2  0  0  0
 36 33  1  0  0  0
 33  1  1  0  0  0
  1  2  1  0  0  0
  3  2  1  0  0  0
  3  4  1  0  0  0
  4  5  2  0  0  0
  4  6  1  0  0  0
  6 18  1  0  0  0
 18 19  2  0  0  0
 19 20  1  0  0  0
 20 21  2  0  0  0
 21 22  1  0  0  0
 22 23  2  0  0  0
 23 24  1  0  0  0
 24 25  2  0  0  0
 25 26  1  0  0  0
 26 27  2  0  0  0
  6  7  1  0  0  0
  7  8  1  0  0  0
  8 28  1  0  0  0
 28 29  1  0  0  0
 29 30  1  0  0  0
 29 31  2  0  0  0
  3  9  1  0  0  0
  9 10  2  0  0  0
 10 11  1  0  0  0
 11 12  1  0  0  0
 11 13  2  0  0  0
 13 14  1  0  0  0
 14 15  2  0  0  0
 15 16  1  0  0  0
 16 17  2  0  0  0
 16  1  1  0  0  0
  8  3  1  0  0  0
 15  9  1  0  0  0
 27 18  1  0  0  0
 27 22  1  0  0  0
 35 38  1  0  0  0
 28 32  1  0  0  0
M  END
> <minimizedAffinity>
-7.94658

> <CNNscore>
0.3575738668

> <CNNaffinity>
6.5351457596

> <CNN_VS>
2.3367972374

> <CNNaffinity_variance>
0.2601770461

$$$$



 38 42  0  0  0  0  0  0  0  0999 V2000
    9.9763    0.7941   23.3904 N   0  0  0  0  0  0  0  0  0  0  0  0
    8.6078    0.2414   23.6579 C   0  0  0  0  0  0  0  0  0  0  0  0
    8.4422   -0.9509   24.5528 C   0  0  0  0  0  0  0  0  0  0  0  0
    8.1223   -2.1314   25.4211 C   0  0  0  0  0  0  0  0  0  0  0  0
    8.6836   -2.9549   26.1162 O   0  0  0  0  0  0  0  0  0  0  0  0
    6.6356   -2.3302   25.4040 N   0  0  0  0  0  0  0  0  0  0  0  0
    6.0367   -1.2725   24.5251 C   0  0  0  0  0  0  0  0  0  0  0  0
    7.1532   -0.4200   23.9991 C   0  0  0  0  0  0  0  0  0  0  0  0
    9.6452   -1.5906   25.1803 C   0  0  0  0  0  0  0  0  0  0  0  0
    9.4796   -2.7829   26.0752 C   0  0  0  0  0  0  0  0  0  0  0  0
   10.6826   -3.4226   26.7025 C   0  0  0  0  0  0  0  0  0  0  0  0
   10.5171   -4.6150   27.5975 Cl  0  0  0  0  0  0  0  0  0  0  0  0
   12.0512   -2.8699   26.4350 C   0  0  0  0  0  0  0  0  0  0  0  0
   12.2168   -1.6776   25.5401 C   0  0  0  0  0  0  0  0  0  0  0  0
   11.0138   -1.0379   24.9127 C   0  0  0  0  0  0  0  0  0  0  0  0
   11.1793    0.1545   24.0178 C   0  0  0  0  0  0  0  0  0  0  0  0
   12.5479    0.7071   23.7502 O   0  0  0  0  0  0  0  0  0  0  0  0
    5.8805   -3.3991   26.1371 C   0  0  0  0  0  0  0  0  0  0  0  0
    5.5115   -4.6724   25.4352 C   0  0  0  0  0  0  0  0  0  0  0  0
    4.7564   -5.7412   26.1682 N   0  0  0  0  0  0  0  0  0  0  0  0
    4.3703   -5.5368   27.6032 C   0  0  0  0  0  0  0  0  0  0  0  0
    4.7393   -4.2635   28.3051 C   0  0  0  0  0  0  0  0  0  0  0  0
    4.3532   -4.0591   29.7401 C   0  0  0  0  0  0  0  0  0  0  0  0
    4.7222   -2.7857   30.4419 C   0  0  0  0  0  0  0  0  0  0  0  0
    5.4773   -1.7169   29.7088 C   0  0  0  0  0  0  0  0  0  0  0  0
    5.8634   -1.9213   28.2739 C   0  0  0  0  0  0  0  0  0  0  0  0
    5.4944   -3.1946   27.5720 C   0  0  0  0  0  0  0  0  0  0  0  0
    7.0064    0.7567   23.0805 N   0  0  0  0  0  0  0  0  0  0  0  0
    5.8892    0.7927   22.0804 C   0  0  0  0  0  0  0  0  0  0  0  0
    5.7424    1.9695   21.1618 C   0  0  0  0  0  0  0  0  0  0  0  0
    4.9186   -0.3481   21.9988 O   0  0  0  0  0  0  0  0  0  0  0  0
    7.6434    1.5054   23.1341 H   0  0  0  0  0  0  0  0  0  0  0  0
   10.1419    1.9865   22.4954 C   0  0  0  0  0  0  0  0  0  0  0  0
    9.9405    5.8833   23.2193 C   0  0  0  0  0  0  0  0  0  0  0  0
   10.4706    4.5464   22.7931 N   0  0  0  0  0  0  0  0  0  0  0  0
    9.6117    3.3234   22.9216 C   0  0  0  0  0  0  0  0  0  0  0  0
    8.2226    3.4373   23.4762 O   0  0  0  0  0  0  0  0  0  0  0  0
   11.3823    4.4717   22.4291 H   0  0  0  0  0  0  0  0  0  0  0  0
 34 35  1  0  0  0
 35 36  1  0  0  0
 36 37  2  0  0  0
 36 33  1  0  0  0
 33  1  1  0  0  0
  1  2  1  0  0  0
  3  2  1  0  0  0
  3  4  1  0  0  0
  4  5  2  0  0  0
  4  6  1  0  0  0
  6 18  1  0  0  0
 18 19  2  0  0  0
 19 20  1  0  0  0
 20 21  2  0  0  0
 21 22  1  0  0  0
 22 23  2  0  0  0
 23 24  1  0  0  0
 24 25  2  0  0  0
 25 26  1  0  0  0
 26 27  2  0  0  0
  6  7  1  0  0  0
  7  8  1  0  0  0
  8 28  1  0  0  0
 28 29  1  0  0  0
 29 30  1  0  0  0
 29 31  2  0  0  0
  3  9  1  0  0  0
  9 10  2  0  0  0
 10 11  1  0  0  0
 11 12  1  0  0  0
 11 13  2  0  0  0
 13 14  1  0  0  0
 14 15  2  0  0  0
 15 16  1  0  0  0
 16 17  2  0  0  0
 16  1  1  0  0  0
  8  3  1  0  0  0
 15  9  1  0  0  0
 27 18  1  0  0  0
 27 22  1  0  0  0
 35 38  1  0  0  0
 28 32  1  0  0  0
M  END
> <minimizedAffinity>
-7.97928

> <CNNscore>
0.3451063037

> <CNNaffinity>
6.3742074966

> <CNN_VS>
2.1997792721

> <CNNaffinity_variance>
0.2120746672

$$$$



 38 42  0  0  0  0  0  0  0  0999 V2000
    9.9169    0.4625   22.7266 N   0  0  0  0  0  0  0  0  0  0  0  0
    8.7594   -0.4811   22.5861 C   0  0  0  0  0  0  0  0  0  0  0  0
    8.7175   -1.7427   23.3965 C   0  0  0  0  0  0  0  0  0  0  0  0
    8.5386   -3.0350   24.1366 C   0  0  0  0  0  0  0  0  0  0  0  0
    9.1050   -3.7186   24.9663 O   0  0  0  0  0  0  0  0  0  0  0  0
    7.2462   -3.6507   23.6888 N   0  0  0  0  0  0  0  0  0  0  0  0
    6.6262   -2.7388   22.6719 C   0  0  0  0  0  0  0  0  0  0  0  0
    7.5356   -1.5596   22.4912 C   0  0  0  0  0  0  0  0  0  0  0  0
    9.8332   -2.0606   24.3475 C   0  0  0  0  0  0  0  0  0  0  0  0
    9.7913   -3.3221   25.1579 C   0  0  0  0  0  0  0  0  0  0  0  0
   10.9069   -3.6400   26.1088 C   0  0  0  0  0  0  0  0  0  0  0  0
   10.8651   -4.9016   26.9192 Cl  0  0  0  0  0  0  0  0  0  0  0  0
   12.0644   -2.6964   26.2493 C   0  0  0  0  0  0  0  0  0  0  0  0
   12.1063   -1.4349   25.4389 C   0  0  0  0  0  0  0  0  0  0  0  0
   10.9907   -1.1170   24.4880 C   0  0  0  0  0  0  0  0  0  0  0  0
   11.0325    0.1446   23.6775 C   0  0  0  0  0  0  0  0  0  0  0  0
   12.1900    1.0882   23.8180 O   0  0  0  0  0  0  0  0  0  0  0  0
    6.6742   -4.9501   24.1728 C   0  0  0  0  0  0  0  0  0  0  0  0
    7.2240   -6.2486   23.6612 C   0  0  0  0  0  0  0  0  0  0  0  0
    6.6520   -7.5480   24.1453 N   0  0  0  0  0  0  0  0  0  0  0  0
    5.5301   -7.5489   25.1410 C   0  0  0  0  0  0  0  0  0  0  0  0
    4.9803   -6.2504   25.6526 C   0  0  0  0  0  0  0  0  0  0  0  0
    3.8584   -6.2514   26.6484 C   0  0  0  0  0  0  0  0  0  0  0  0
    3.3087   -4.9529   27.1600 C   0  0  0  0  0  0  0  0  0  0  0  0
    3.8807   -3.6535   26.6759 C   0  0  0  0  0  0  0  0  0  0  0  0
    5.0026   -3.6526   25.6802 C   0  0  0  0  0  0  0  0  0  0  0  0
    5.5524   -4.9510   25.1686 C   0  0  0  0  0  0  0  0  0  0  0  0
    7.3036   -0.4007   21.5675 N   0  0  0  0  0  0  0  0  0  0  0  0
    6.2187   -0.4708   20.5341 C   0  0  0  0  0  0  0  0  0  0  0  0
    5.9868    0.6881   19.6104 C   0  0  0  0  0  0  0  0  0  0  0  0
    5.3657   -1.6998   20.4244 O   0  0  0  0  0  0  0  0  0  0  0  0
    7.8635    0.4059   21.6395 H   0  0  0  0  0  0  0  0  0  0  0  0
    9.9587    1.7241   21.9162 C   0  0  0  0  0  0  0  0  0  0  0  0
   10.5469    5.4875   23.0300 C   0  0  0  0  0  0  0  0  0  0  0  0
   10.7461    4.1596   22.3614 N   0  0  0  0  0  0  0  0  0  0  0  0
    9.7596    3.0519   22.5848 C   0  0  0  0  0  0  0  0  0  0  0  0
    8.5739    3.2722   23.4769 O   0  0  0  0  0  0  0  0  0  0  0  0
   11.5242    4.0150   21.7759 H   0  0  0  0  0  0  0  0  0  0  0  0
 34 35  1  0  0  0
 35 36  1  0  0  0
 36 37  2  0  0  0
 36 33  1  0  0  0
 33  1  1  0  0  0
  1  2  1  0  0  0
  3  2  1  0  0  0
  3  4  1  0  0  0
  4  5  2  0  0  0
  4  6  1  0  0  0
  6 18  1  0  0  0
 18 19  2  0  0  0
 19 20  1  0  0  0
 20 21  2  0  0  0
 21 22  1  0  0  0
 22 23  2  0  0  0
 23 24  1  0  0  0
 24 25  2  0  0  0
 25 26  1  0  0  0
 26 27  2  0  0  0
  6  7  1  0  0  0
  7  8  1  0  0  0
  8 28  1  0  0  0
 28 29  1  0  0  0
 29 30  1  0  0  0
 29 31  2  0  0  0
  3  9  1  0  0  0
  9 10  2  0  0  0
 10 11  1  0  0  0
 11 12  1  0  0  0
 11 13  2  0  0  0
 13 14  1  0  0  0
 14 15  2  0  0  0
 15 16  1  0  0  0
 16 17  2  0  0  0
 16  1  1  0  0  0
  8  3  1  0  0  0
 15  9  1  0  0  0
 27 18  1  0  0  0
 27 22  1  0  0  0
 35 38  1  0  0  0
 28 32  1  0  0  0
M  END
> <minimizedAffinity>
-8.79410

> <CNNscore>
0.3342874348

> <CNNaffinity>
6.6592855453

> <CNN_VS>
2.2261154652

> <CNNaffinity_variance>
0.2008449286

$$$$



 38 42  0  0  0  0  0  0  0  0999 V2000
    8.3398    4.6085   23.3878 N   0  0  0  0  0  0  0  0  0  0  0  0
    7.5907    3.3546   23.7292 C   0  0  0  0  0  0  0  0  0  0  0  0
    8.2955    2.0308   23.7090 C   0  0  0  0  0  0  0  0  0  0  0  0
    8.8636    0.6427   23.7314 C   0  0  0  0  0  0  0  0  0  0  0  0
    9.9132    0.0632   23.5339 O   0  0  0  0  0  0  0  0  0  0  0  0
    7.7660   -0.3012   24.1242 N   0  0  0  0  0  0  0  0  0  0  0  0
    6.5195    0.5036   24.3447 C   0  0  0  0  0  0  0  0  0  0  0  0
    6.8468    1.9448   24.0881 C   0  0  0  0  0  0  0  0  0  0  0  0
    9.7497    1.9607   23.3474 C   0  0  0  0  0  0  0  0  0  0  0  0
   10.4546    0.6368   23.3272 C   0  0  0  0  0  0  0  0  0  0  0  0
   11.9086    0.5668   22.9655 C   0  0  0  0  0  0  0  0  0  0  0  0
   12.6136   -0.7571   22.9453 Cl  0  0  0  0  0  0  0  0  0  0  0  0
   12.6577    1.8207   22.6241 C   0  0  0  0  0  0  0  0  0  0  0  0
   11.9528    3.1446   22.6443 C   0  0  0  0  0  0  0  0  0  0  0  0
   10.4988    3.2146   23.0059 C   0  0  0  0  0  0  0  0  0  0  0  0
    9.7938    4.5385   23.0262 C   0  0  0  0  0  0  0  0  0  0  0  0
   10.5430    5.7924   22.6847 O   0  0  0  0  0  0  0  0  0  0  0  0
    7.8926   -1.7886   24.2709 C   0  0  0  0  0  0  0  0  0  0  0  0
    6.8712   -2.6934   23.6478 C   0  0  0  0  0  0  0  0  0  0  0  0
    6.9978   -4.1808   23.7944 N   0  0  0  0  0  0  0  0  0  0  0  0
    8.1458   -4.7635   24.5641 C   0  0  0  0  0  0  0  0  0  0  0  0
    9.1672   -3.8587   25.1872 C   0  0  0  0  0  0  0  0  0  0  0  0
   10.3153   -4.4415   25.9569 C   0  0  0  0  0  0  0  0  0  0  0  0
   11.3367   -3.5367   26.5800 C   0  0  0  0  0  0  0  0  0  0  0  0
   11.2100   -2.0492   26.4334 C   0  0  0  0  0  0  0  0  0  0  0  0
   10.0620   -1.4665   25.6636 C   0  0  0  0  0  0  0  0  0  0  0  0
    9.0406   -2.3713   25.0406 C   0  0  0  0  0  0  0  0  0  0  0  0
    5.8928    3.0976   24.1923 N   0  0  0  0  0  0  0  0  0  0  0  0
    5.4401    3.5772   25.5394 C   0  0  0  0  0  0  0  0  0  0  0  0
    4.4861    4.7300   25.6436 C   0  0  0  0  0  0  0  0  0  0  0  0
    5.9414    2.9038   26.7826 O   0  0  0  0  0  0  0  0  0  0  0  0
    5.5638    3.5395   23.3764 H   0  0  0  0  0  0  0  0  0  0  0  0
    7.6348    5.9324   23.4080 C   0  0  0  0  0  0  0  0  0  0  0  0
    4.7818    7.8258   21.4018 C   0  0  0  0  0  0  0  0  0  0  0  0
    5.9245    7.5702   22.3393 N   0  0  0  0  0  0  0  0  0  0  0  0
    6.4921    6.1880   22.4705 C   0  0  0  0  0  0  0  0  0  0  0  0
    5.9171    5.0613   21.6642 O   0  0  0  0  0  0  0  0  0  0  0  0
    6.3019    8.3096   22.8684 H   0  0  0  0  0  0  0  0  0  0  0  0
 34 35  1  0  0  0
 35 36  1  0  0  0
 36 37  2  0  0  0
 36 33  1  0  0  0
 33  1  1  0  0  0
  1  2  1  0  0  0
  3  2  1  0  0  0
  3  4  1  0  0  0
  4  5  2  0  0  0
  4  6  1  0  0  0
  6 18  1  0  0  0
 18 19  2  0  0  0
 19 20  1  0  0  0
 20 21  2  0  0  0
 21 22  1  0  0  0
 22 23  2  0  0  0
 23 24  1  0  0  0
 24 25  2  0  0  0
 25 26  1  0  0  0
 26 27  2  0  0  0
  6  7  1  0  0  0
  7  8  1  0  0  0
  8 28  1  0  0  0
 28 29  1  0  0  0
 29 30  1  0  0  0
 29 31  2  0  0  0
  3  9  1  0  0  0
  9 10  2  0  0  0
 10 11  1  0  0  0
 11 12  1  0  0  0
 11 13  2  0  0  0
 13 14  1  0  0  0
 14 15  2  0  0  0
 15 16  1  0  0  0
 16 17  2  0  0  0
 16  1  1  0  0  0
  8  3  1  0  0  0
 15  9  1  0  0  0
 27 18  1  0  0  0
 27 22  1  0  0  0
 35 38  1  0  0  0
 28 32  1  0  0  0
M  END
> <minimizedAffinity>
-7.28409

> <CNNscore>
0.2703652382

> <CNNaffinity>
6.3479933739

> <CNN_VS>
1.7162767649

> <CNNaffinity_variance>
0.2369868010

$$$$



 38 42  0  0  0  0  0  0  0  0999 V2000
   10.6620    1.6075   22.7637 N   0  0  0  0  0  0  0  0  0  0  0  0
    9.2980    1.2176   23.2509 C   0  0  0  0  0  0  0  0  0  0  0  0
    9.1310    0.0123   24.1279 C   0  0  0  0  0  0  0  0  0  0  0  0
    8.8104   -1.1608   25.0060 C   0  0  0  0  0  0  0  0  0  0  0  0
    9.3680   -2.0816   25.5695 O   0  0  0  0  0  0  0  0  0  0  0  0
    7.3293   -1.1711   25.2434 N   0  0  0  0  0  0  0  0  0  0  0  0
    6.7346   -0.0043   24.5119 C   0  0  0  0  0  0  0  0  0  0  0  0
    7.8481    0.7270   23.8226 C   0  0  0  0  0  0  0  0  0  0  0  0
   10.3281   -0.8033   24.5177 C   0  0  0  0  0  0  0  0  0  0  0  0
   10.1611   -2.0086   25.3947 C   0  0  0  0  0  0  0  0  0  0  0  0
   11.3582   -2.8241   25.7845 C   0  0  0  0  0  0  0  0  0  0  0  0
   11.1913   -4.0295   26.6616 Cl  0  0  0  0  0  0  0  0  0  0  0  0
   12.7222   -2.4342   25.2973 C   0  0  0  0  0  0  0  0  0  0  0  0
   12.8892   -1.2289   24.4203 C   0  0  0  0  0  0  0  0  0  0  0  0
   11.6922   -0.4134   24.0305 C   0  0  0  0  0  0  0  0  0  0  0  0
   11.8591    0.7920   23.1534 C   0  0  0  0  0  0  0  0  0  0  0  0
   13.2231    1.1819   22.6662 O   0  0  0  0  0  0  0  0  0  0  0  0
    6.5754   -2.1723   26.0674 C   0  0  0  0  0  0  0  0  0  0  0  0
    6.3169   -1.9052   27.5207 C   0  0  0  0  0  0  0  0  0  0  0  0
    5.5630   -2.9064   28.3448 N   0  0  0  0  0  0  0  0  0  0  0  0
    5.0675   -4.1748   27.7156 C   0  0  0  0  0  0  0  0  0  0  0  0
    5.3260   -4.4419   26.2624 C   0  0  0  0  0  0  0  0  0  0  0  0
    4.8306   -5.7103   25.6332 C   0  0  0  0  0  0  0  0  0  0  0  0
    5.0891   -5.9773   24.1800 C   0  0  0  0  0  0  0  0  0  0  0  0
    5.8430   -4.9761   23.3559 C   0  0  0  0  0  0  0  0  0  0  0  0
    6.3385   -3.7078   23.9851 C   0  0  0  0  0  0  0  0  0  0  0  0
    6.0800   -3.4407   25.4383 C   0  0  0  0  0  0  0  0  0  0  0  0
    7.7039    1.9571   22.9764 N   0  0  0  0  0  0  0  0  0  0  0  0
    6.3792    2.2903   22.3568 C   0  0  0  0  0  0  0  0  0  0  0  0
    6.2351    3.5204   21.5106 C   0  0  0  0  0  0  0  0  0  0  0  0
    5.1985    1.3932   22.5834 O   0  0  0  0  0  0  0  0  0  0  0  0
    8.4789    2.5459   22.8277 H   0  0  0  0  0  0  0  0  0  0  0  0
   10.8290    2.8129   21.8866 C   0  0  0  0  0  0  0  0  0  0  0  0
   10.6339    6.4171   23.5364 C   0  0  0  0  0  0  0  0  0  0  0  0
   10.2132    5.1072   22.9387 N   0  0  0  0  0  0  0  0  0  0  0  0
   11.2497    4.1228   22.4843 C   0  0  0  0  0  0  0  0  0  0  0  0
   12.7070    4.4482   22.6275 O   0  0  0  0  0  0  0  0  0  0  0  0
    9.2568    4.8936   22.8447 H   0  0  0  0  0  0  0  0  0  0  0  0
 34 35  1  0  0  0
 35 36  1  0  0  0
 36 37  2  0  0  0
 36 33  1  0  0  0
 33  1  1  0  0  0
  1  2  1  0  0  0
  3  2  1  0  0  0
  3  4  1  0  0  0
  4  5  2  0  0  0
  4  6  1  0  0  0
  6 18  1  0  0  0
 18 19  2  0  0  0
 19 20  1  0  0  0
 20 21  2  0  0  0
 21 22  1  0  0  0
 22 23  2  0  0  0
 23 24  1  0  0  0
 24 25  2  0  0  0
 25 26  1  0  0  0
 26 27  2  0  0  0
  6  7  1  0  0  0
  7  8  1  0  0  0
  8 28  1  0  0  0
 28 29  1  0  0  0
 29 30  1  0  0  0
 29 31  2  0  0  0
  3  9  1  0  0  0
  9 10  2  0  0  0
 10 11  1  0  0  0
 11 12  1  0  0  0
 11 13  2  0  0  0
 13 14  1  0  0  0
 14 15  2  0  0  0
 15 16  1  0  0  0
 16 17  2  0  0  0
 16  1  1  0  0  0
  8  3  1  0  0  0
 15  9  1  0  0  0
 27 18  1  0  0  0
 27 22  1  0  0  0
 35 38  1  0  0  0
 28 32  1  0  0  0
M  END
> <minimizedAffinity>
-8.24211

> <CNNscore>
0.2469756901

> <CNNaffinity>
6.5098571777

> <CNN_VS>
1.6077765226

> <CNNaffinity_variance>
0.2847604156

$$$$
