


 42 48  0  0  0  0  0  0  0  0999 V2000
   -7.3595   -4.0321  -24.5479 O   0  0  0  0  0  0  0  0  0  0  0  0
   -7.8495   -2.6343  -24.3114 C   0  0  0  0  0  0  0  0  0  0  0  0
   -6.8712   -1.5370  -24.0133 C   0  0  0  0  0  0  0  0  0  0  0  0
   -5.4029   -1.8375  -23.9517 C   0  0  0  0  0  0  0  0  0  0  0  0
   -4.4247   -0.7402  -23.6536 C   0  0  0  0  0  0  0  0  0  0  0  0
   -4.9147    0.6576  -23.4171 C   0  0  0  0  0  0  0  0  0  0  0  0
   -3.6918    1.4851  -23.1523 Cl  0  0  0  0  0  0  0  0  0  0  0  0
   -6.3829    0.9582  -23.4786 C   0  0  0  0  0  0  0  0  0  0  0  0
   -7.3612   -0.1391  -23.7767 C   0  0  0  0  0  0  0  0  0  0  0  0
   -8.8296    0.1614  -23.8383 C   0  0  0  0  0  0  0  0  0  0  0  0
   -9.8078   -0.9359  -24.1364 C   0  0  0  0  0  0  0  0  0  0  0  0
   -9.3178   -2.3337  -24.3729 N   0  0  0  0  0  0  0  0  0  0  0  0
  -10.2603    0.6109  -23.8672 C   0  0  0  0  0  0  0  0  0  0  0  0
  -11.4523   -0.2586  -24.1378 O   0  0  0  0  0  0  0  0  0  0  0  0
  -10.2899    2.0825  -23.5781 N   0  0  0  0  0  0  0  0  0  0  0  0
   -8.8773    2.5425  -23.3705 C   0  0  0  0  0  0  0  0  0  0  0  0
   -7.9748    1.3552  -23.5313 C   0  0  0  0  0  0  0  0  0  0  0  0
  -11.5166    2.9429  -23.5088 C   0  0  0  0  0  0  0  0  0  0  0  0
  -12.4747    2.7921  -22.3647 C   0  0  0  0  0  0  0  0  0  0  0  0
  -13.7014    3.6526  -22.2954 N   0  0  0  0  0  0  0  0  0  0  0  0
  -13.9699    4.6638  -23.3702 C   0  0  0  0  0  0  0  0  0  0  0  0
  -13.0117    4.8145  -24.5144 C   0  0  0  0  0  0  0  0  0  0  0  0
  -13.2802    5.8258  -25.5893 C   0  0  0  0  0  0  0  0  0  0  0  0
  -12.3220    5.9765  -26.7335 C   0  0  0  0  0  0  0  0  0  0  0  0
  -11.0953    5.1161  -26.8027 C   0  0  0  0  0  0  0  0  0  0  0  0
  -10.8268    4.1049  -25.7278 C   0  0  0  0  0  0  0  0  0  0  0  0
  -11.7850    3.9541  -24.5837 C   0  0  0  0  0  0  0  0  0  0  0  0
  -10.2961   -3.4311  -24.6710 C   0  0  0  0  0  0  0  0  0  0  0  0
  -10.1221   -4.2786  -25.8963 C   0  0  0  0  0  0  0  0  0  0  0  0
   -9.5675   -3.8216  -27.2130 N   0  0  0  0  0  0  0  0  0  0  0  0
   -9.5747   -4.9926  -28.1505 N   0  0  0  0  0  0  0  0  0  0  0  0
  -10.1338   -6.1733  -27.4132 C   0  0  0  0  0  0  0  0  0  0  0  0
  -10.4721   -5.7320  -26.0201 O   0  0  0  0  0  0  0  0  0  0  0  0
   -6.4800    1.3608  -23.4069 C   0  0  0  0  0  0  0  0  0  0  0  0
   -5.8336    1.8692  -22.1524 N   0  0  0  0  0  0  0  0  0  0  0  0
   -5.3850    2.7456  -22.1502 H   0  0  0  0  0  0  0  0  0  0  0  0
   -5.8705    1.0425  -20.9015 C   0  0  0  0  0  0  0  0  0  0  0  0
   -4.7543    1.1407  -19.9043 N   0  0  0  0  0  0  0  0  0  0  0  0
   -4.7912    0.3140  -18.6533 C   0  0  0  0  0  0  0  0  0  0  0  0
   -5.9444   -0.6111  -18.3994 N   0  0  0  0  0  0  0  0  0  0  0  0
   -7.0606   -0.7094  -19.3966 C   0  0  0  0  0  0  0  0  0  0  0  0
   -7.0237    0.1173  -20.6475 N   0  0  0  0  0  0  0  0  0  0  0  0
  1  2  2  0  0  0
  2  3  1  0  0  0
  3  4  2  0  0  0
  4  5  1  0  0  0
  5  6  2  0  0  0
  6  7  1  0  0  0
  6  8  1  0  0  0
  8  9  2  0  0  0
  9 10  1  0  0  0
 10 11  1  0  0  0
 11 12  1  0  0  0
 12 28  1  0  0  0
 28 29  1  0  0  0
 29 30  2  0  0  0
 30 31  1  0  0  0
 31 32  2  0  0  0
 32 33  1  0  0  0
 10 13  1  0  0  0
 13 14  2  0  0  0
 13 15  1  0  0  0
 15 18  1  0  0  0
 18 19  2  0  0  0
 19 20  1  0  0  0
 20 21  2  0  0  0
 21 22  1  0  0  0
 22 23  2  0  0  0
 23 24  1  0  0  0
 24 25  2  0  0  0
 25 26  1  0  0  0
 26 27  2  0  0  0
 15 16  1  0  0  0
 16 17  1  0  0  0
 17 34  1  0  0  0
 34 35  1  0  0  0
 35 37  1  0  0  0
 37 38  2  0  0  0
 38 39  1  0  0  0
 39 40  2  0  0  0
 40 41  1  0  0  0
 41 42  2  0  0  0
 12  2  1  0  0  0
 33 29  1  0  0  0
 27 18  1  0  0  0
 42 37  1  0  0  0
  9  3  1  0  0  0
 17 10  1  0  0  0
 27 22  1  0  0  0
 35 36  1  0  0  0
M  END
> <minimizedAffinity>
-8.64925

> <CNNscore>
0.4008926749

> <CNNaffinity>
6.8071699142

> <CNN_VS>
2.7289445400

> <CNNaffinity_variance>
0.0691939741

$$$$



 42 48  0  0  0  0  0  0  0  0999 V2000
   -5.3497   -3.6581  -20.4988 O   0  0  0  0  0  0  0  0  0  0  0  0
   -6.1471   -2.6558  -21.2795 C   0  0  0  0  0  0  0  0  0  0  0  0
   -7.0275   -3.1109  -22.4056 C   0  0  0  0  0  0  0  0  0  0  0  0
   -7.1103   -4.5682  -22.7509 C   0  0  0  0  0  0  0  0  0  0  0  0
   -7.9906   -5.0232  -23.8770 C   0  0  0  0  0  0  0  0  0  0  0  0
   -8.7881   -4.0209  -24.6576 C   0  0  0  0  0  0  0  0  0  0  0  0
   -9.5424   -4.8061  -25.6895 Cl  0  0  0  0  0  0  0  0  0  0  0  0
   -8.7052   -2.5636  -24.3123 C   0  0  0  0  0  0  0  0  0  0  0  0
   -7.8249   -2.1086  -23.1863 C   0  0  0  0  0  0  0  0  0  0  0  0
   -7.7421   -0.6512  -22.8409 C   0  0  0  0  0  0  0  0  0  0  0  0
   -6.8618   -0.1962  -21.7148 C   0  0  0  0  0  0  0  0  0  0  0  0
   -6.0643   -1.1985  -20.9342 N   0  0  0  0  0  0  0  0  0  0  0  0
   -7.7609    0.8312  -22.6125 C   0  0  0  0  0  0  0  0  0  0  0  0
   -6.9857    1.5716  -21.5633 O   0  0  0  0  0  0  0  0  0  0  0  0
   -8.6912    1.4433  -23.6175 N   0  0  0  0  0  0  0  0  0  0  0  0
   -9.2473    0.3391  -24.4670 C   0  0  0  0  0  0  0  0  0  0  0  0
   -8.6607   -0.9553  -23.9870 C   0  0  0  0  0  0  0  0  0  0  0  0
   -9.0095    2.9031  -23.7497 C   0  0  0  0  0  0  0  0  0  0  0  0
   -7.9045    3.8958  -23.9578 C   0  0  0  0  0  0  0  0  0  0  0  0
   -8.2228    5.3556  -24.0900 N   0  0  0  0  0  0  0  0  0  0  0  0
   -9.6461    5.8228  -24.0141 C   0  0  0  0  0  0  0  0  0  0  0  0
  -10.7512    4.8300  -23.8059 C   0  0  0  0  0  0  0  0  0  0  0  0
  -12.1747    5.2972  -23.7300 C   0  0  0  0  0  0  0  0  0  0  0  0
  -13.2797    4.3044  -23.5218 C   0  0  0  0  0  0  0  0  0  0  0  0
  -12.9613    2.8446  -23.3896 C   0  0  0  0  0  0  0  0  0  0  0  0
  -11.5379    2.3775  -23.4655 C   0  0  0  0  0  0  0  0  0  0  0  0
  -10.4329    3.3702  -23.6737 C   0  0  0  0  0  0  0  0  0  0  0  0
   -5.1840   -0.7434  -19.8081 C   0  0  0  0  0  0  0  0  0  0  0  0
   -4.1813    0.3490  -20.0344 C   0  0  0  0  0  0  0  0  0  0  0  0
   -3.8899    1.4857  -19.1001 N   0  0  0  0  0  0  0  0  0  0  0  0
   -2.8224    2.3357  -19.7229 N   0  0  0  0  0  0  0  0  0  0  0  0
   -2.4540    1.7243  -21.0422 C   0  0  0  0  0  0  0  0  0  0  0  0
   -3.2938    0.4964  -21.2347 O   0  0  0  0  0  0  0  0  0  0  0  0
   -8.9431   -2.3151  -24.5537 C   0  0  0  0  0  0  0  0  0  0  0  0
  -10.0922   -3.1231  -24.0276 N   0  0  0  0  0  0  0  0  0  0  0  0
   -9.9959   -4.0955  -23.9075 H   0  0  0  0  0  0  0  0  0  0  0  0
  -11.3878   -2.4498  -23.6846 C   0  0  0  0  0  0  0  0  0  0  0  0
  -11.8388   -1.2500  -24.4638 N   0  0  0  0  0  0  0  0  0  0  0  0
  -13.1346   -0.5767  -24.1207 C   0  0  0  0  0  0  0  0  0  0  0  0
  -13.9793   -1.1031  -22.9985 N   0  0  0  0  0  0  0  0  0  0  0  0
  -13.5282   -2.3029  -22.2194 C   0  0  0  0  0  0  0  0  0  0  0  0
  -12.2326   -2.9762  -22.5624 N   0  0  0  0  0  0  0  0  0  0  0  0
  1  2  2  0  0  0
  2  3  1  0  0  0
  3  4  2  0  0  0
  4  5  1  0  0  0
  5  6  2  0  0  0
  6  7  1  0  0  0
  6  8  1  0  0  0
  8  9  2  0  0  0
  9 10  1  0  0  0
 10 11  1  0  0  0
 11 12  1  0  0  0
 12 28  1  0  0  0
 28 29  1  0  0  0
 29 30  2  0  0  0
 30 31  1  0  0  0
 31 32  2  0  0  0
 32 33  1  0  0  0
 10 13  1  0  0  0
 13 14  2  0  0  0
 13 15  1  0  0  0
 15 18  1  0  0  0
 18 19  2  0  0  0
 19 20  1  0  0  0
 20 21  2  0  0  0
 21 22  1  0  0  0
 22 23  2  0  0  0
 23 24  1  0  0  0
 24 25  2  0  0  0
 25 26  1  0  0  0
 26 27  2  0  0  0
 15 16  1  0  0  0
 16 17  1  0  0  0
 17 34  1  0  0  0
 34 35  1  0  0  0
 35 37  1  0  0  0
 37 38  2  0  0  0
 38 39  1  0  0  0
 39 40  2  0  0  0
 40 41  1  0  0  0
 41 42  2  0  0  0
 12  2  1  0  0  0
 33 29  1  0  0  0
 27 18  1  0  0  0
 42 37  1  0  0  0
  9  3  1  0  0  0
 17 10  1  0  0  0
 27 22  1  0  0  0
 35 36  1  0  0  0
M  END
> <minimizedAffinity>
-9.49735

> <CNNscore>
0.3854427338

> <CNNaffinity>
6.8727807999

> <CNN_VS>
2.6490633488

> <CNNaffinity_variance>
0.5175795555

$$$$



 42 48  0  0  0  0  0  0  0  0999 V2000
   -5.7403   -5.2664  -21.3316 O   0  0  0  0  0  0  0  0  0  0  0  0
   -6.3082   -4.0580  -22.0151 C   0  0  0  0  0  0  0  0  0  0  0  0
   -7.2285   -4.2230  -23.1881 C   0  0  0  0  0  0  0  0  0  0  0  0
   -7.5808   -5.5964  -23.6776 C   0  0  0  0  0  0  0  0  0  0  0  0
   -8.5010   -5.7614  -24.8506 C   0  0  0  0  0  0  0  0  0  0  0  0
   -9.0689   -4.5530  -25.5341 C   0  0  0  0  0  0  0  0  0  0  0  0
   -9.9317   -5.0738  -26.6452 Cl  0  0  0  0  0  0  0  0  0  0  0  0
   -8.7166   -3.1796  -25.0447 C   0  0  0  0  0  0  0  0  0  0  0  0
   -7.7964   -3.0146  -23.8717 C   0  0  0  0  0  0  0  0  0  0  0  0
   -7.4441   -1.6411  -23.3822 C   0  0  0  0  0  0  0  0  0  0  0  0
   -6.5239   -1.4762  -22.2092 C   0  0  0  0  0  0  0  0  0  0  0  0
   -5.9560   -2.6846  -21.5256 N   0  0  0  0  0  0  0  0  0  0  0  0
   -7.1835   -0.2123  -23.0074 C   0  0  0  0  0  0  0  0  0  0  0  0
   -6.3093    0.2591  -21.8833 O   0  0  0  0  0  0  0  0  0  0  0  0
   -7.9507    0.6625  -23.9541 N   0  0  0  0  0  0  0  0  0  0  0  0
   -8.6854   -0.2257  -24.9139 C   0  0  0  0  0  0  0  0  0  0  0  0
   -8.3723   -1.6494  -24.5605 C   0  0  0  0  0  0  0  0  0  0  0  0
   -7.9783    2.1622  -23.9429 C   0  0  0  0  0  0  0  0  0  0  0  0
   -6.6982    2.9367  -24.0498 C   0  0  0  0  0  0  0  0  0  0  0  0
   -6.7258    4.4364  -24.0386 N   0  0  0  0  0  0  0  0  0  0  0  0
   -8.0335    5.1616  -23.9205 C   0  0  0  0  0  0  0  0  0  0  0  0
   -9.3137    4.3870  -23.8136 C   0  0  0  0  0  0  0  0  0  0  0  0
  -10.6214    5.1123  -23.6954 C   0  0  0  0  0  0  0  0  0  0  0  0
  -11.9015    4.3377  -23.5885 C   0  0  0  0  0  0  0  0  0  0  0  0
  -11.8738    2.8380  -23.5998 C   0  0  0  0  0  0  0  0  0  0  0  0
  -10.5661    2.1129  -23.7179 C   0  0  0  0  0  0  0  0  0  0  0  0
   -9.2861    2.8873  -23.8248 C   0  0  0  0  0  0  0  0  0  0  0  0
   -5.0357   -2.5195  -20.3526 C   0  0  0  0  0  0  0  0  0  0  0  0
   -5.0685   -1.2555  -19.5457 C   0  0  0  0  0  0  0  0  0  0  0  0
   -4.2336   -0.0331  -19.7878 N   0  0  0  0  0  0  0  0  0  0  0  0
   -4.5910    0.9860  -18.7468 N   0  0  0  0  0  0  0  0  0  0  0  0
   -5.6467    0.3933  -17.8611 C   0  0  0  0  0  0  0  0  0  0  0  0
   -5.9418   -0.9920  -18.3549 O   0  0  0  0  0  0  0  0  0  0  0  0
   -8.8955   -2.8676  -25.2621 C   0  0  0  0  0  0  0  0  0  0  0  0
  -10.1562   -3.5250  -24.7842 N   0  0  0  0  0  0  0  0  0  0  0  0
  -10.2822   -4.4940  -24.9047 H   0  0  0  0  0  0  0  0  0  0  0  0
  -11.2248   -2.7064  -24.1226 C   0  0  0  0  0  0  0  0  0  0  0  0
  -11.8324   -3.1687  -22.8315 N   0  0  0  0  0  0  0  0  0  0  0  0
  -12.9011   -2.3500  -22.1700 C   0  0  0  0  0  0  0  0  0  0  0  0
  -13.3621   -1.0689  -22.7995 N   0  0  0  0  0  0  0  0  0  0  0  0
  -12.7545   -0.6066  -24.0906 C   0  0  0  0  0  0  0  0  0  0  0  0
  -11.6859   -1.4253  -24.7522 N   0  0  0  0  0  0  0  0  0  0  0  0
  1  2  2  0  0  0
  2  3  1  0  0  0
  3  4  2  0  0  0
  4  5  1  0  0  0
  5  6  2  0  0  0
  6  7  1  0  0  0
  6  8  1  0  0  0
  8  9  2  0  0  0
  9 10  1  0  0  0
 10 11  1  0  0  0
 11 12  1  0  0  0
 12 28  1  0  0  0
 28 29  1  0  0  0
 29 30  2  0  0  0
 30 31  1  0  0  0
 31 32  2  0  0  0
 32 33  1  0  0  0
 10 13  1  0  0  0
 13 14  2  0  0  0
 13 15  1  0  0  0
 15 18  1  0  0  0
 18 19  2  0  0  0
 19 20  1  0  0  0
 20 21  2  0  0  0
 21 22  1  0  0  0
 22 23  2  0  0  0
 23 24  1  0  0  0
 24 25  2  0  0  0
 25 26  1  0  0  0
 26 27  2  0  0  0
 15 16  1  0  0  0
 16 17  1  0  0  0
 17 34  1  0  0  0
 34 35  1  0  0  0
 35 37  1  0  0  0
 37 38  2  0  0  0
 38 39  1  0  0  0
 39 40  2  0  0  0
 40 41  1  0  0  0
 41 42  2  0  0  0
 12  2  1  0  0  0
 33 29  1  0  0  0
 27 18  1  0  0  0
 42 37  1  0  0  0
  9  3  1  0  0  0
 17 10  1  0  0  0
 27 22  1  0  0  0
 35 36  1  0  0  0
M  END
> <minimizedAffinity>
-8.46993

> <CNNscore>
0.2809990048

> <CNNaffinity>
6.8065071106

> <CNN_VS>
1.9126217365

> <CNNaffinity_variance>
0.3751881719

$$$$



 42 48  0  0  0  0  0  0  0  0999 V2000
   -9.3204    3.7181  -23.5796 O   0  0  0  0  0  0  0  0  0  0  0  0
   -8.7202    2.3436  -23.6025 C   0  0  0  0  0  0  0  0  0  0  0  0
   -7.2497    2.1633  -23.3675 C   0  0  0  0  0  0  0  0  0  0  0  0
   -6.3794    3.3575  -23.1096 C   0  0  0  0  0  0  0  0  0  0  0  0
   -4.9090    3.1772  -22.8746 C   0  0  0  0  0  0  0  0  0  0  0  0
   -4.3088    1.8027  -22.8975 C   0  0  0  0  0  0  0  0  0  0  0  0
   -2.8442    1.9866  -22.6302 Cl  0  0  0  0  0  0  0  0  0  0  0  0
   -5.1791    0.6085  -23.1554 C   0  0  0  0  0  0  0  0  0  0  0  0
   -6.6495    0.7888  -23.3904 C   0  0  0  0  0  0  0  0  0  0  0  0
   -7.5198   -0.4054  -23.6483 C   0  0  0  0  0  0  0  0  0  0  0  0
   -8.9902   -0.2251  -23.8833 C   0  0  0  0  0  0  0  0  0  0  0  0
   -9.5904    1.1494  -23.8604 N   0  0  0  0  0  0  0  0  0  0  0  0
   -8.2603   -1.6869  -23.8920 C   0  0  0  0  0  0  0  0  0  0  0  0
   -9.7311   -1.8189  -24.1555 O   0  0  0  0  0  0  0  0  0  0  0  0
   -7.2719   -2.8133  -23.8258 N   0  0  0  0  0  0  0  0  0  0  0  0
   -5.9205   -2.2279  -23.5412 C   0  0  0  0  0  0  0  0  0  0  0  0
   -6.0737   -0.7398  -23.4315 C   0  0  0  0  0  0  0  0  0  0  0  0
   -7.5808   -4.2693  -24.0116 C   0  0  0  0  0  0  0  0  0  0  0  0
   -7.2315   -5.2534  -22.9348 C   0  0  0  0  0  0  0  0  0  0  0  0
   -7.5403   -6.7094  -23.1206 N   0  0  0  0  0  0  0  0  0  0  0  0
   -8.1984   -7.1814  -24.3832 C   0  0  0  0  0  0  0  0  0  0  0  0
   -8.5477   -6.1972  -25.4601 C   0  0  0  0  0  0  0  0  0  0  0  0
   -9.2058   -6.6692  -26.7227 C   0  0  0  0  0  0  0  0  0  0  0  0
   -9.5550   -5.6850  -27.7995 C   0  0  0  0  0  0  0  0  0  0  0  0
   -9.2462   -4.2290  -27.6136 C   0  0  0  0  0  0  0  0  0  0  0  0
   -8.5881   -3.7571  -26.3510 C   0  0  0  0  0  0  0  0  0  0  0  0
   -8.2389   -4.7412  -25.2743 C   0  0  0  0  0  0  0  0  0  0  0  0
  -11.0609    1.3297  -24.0954 C   0  0  0  0  0  0  0  0  0  0  0  0
  -12.0299    0.2892  -23.6176 C   0  0  0  0  0  0  0  0  0  0  0  0
  -13.5023    0.2585  -23.9025 N   0  0  0  0  0  0  0  0  0  0  0  0
  -14.0790   -0.9530  -23.2320 N   0  0  0  0  0  0  0  0  0  0  0  0
  -12.9631   -1.6711  -22.5327 C   0  0  0  0  0  0  0  0  0  0  0  0
  -11.6967   -0.9034  -22.7710 O   0  0  0  0  0  0  0  0  0  0  0  0
   -4.9739    0.2417  -23.1538 C   0  0  0  0  0  0  0  0  0  0  0  0
   -4.0446    0.0195  -21.9975 N   0  0  0  0  0  0  0  0  0  0  0  0
   -3.0720    0.1054  -22.1241 H   0  0  0  0  0  0  0  0  0  0  0  0
   -4.5969   -0.3335  -20.6484 C   0  0  0  0  0  0  0  0  0  0  0  0
   -4.5137    0.6538  -19.5222 N   0  0  0  0  0  0  0  0  0  0  0  0
   -5.0661    0.3007  -18.1730 C   0  0  0  0  0  0  0  0  0  0  0  0
   -5.7015   -1.0396  -17.9500 N   0  0  0  0  0  0  0  0  0  0  0  0
   -5.7847   -2.0269  -19.0762 C   0  0  0  0  0  0  0  0  0  0  0  0
   -5.2324   -1.6739  -20.4253 N   0  0  0  0  0  0  0  0  0  0  0  0
  1  2  2  0  0  0
  2  3  1  0  0  0
  3  4  2  0  0  0
  4  5  1  0  0  0
  5  6  2  0  0  0
  6  7  1  0  0  0
  6  8  1  0  0  0
  8  9  2  0  0  0
  9 10  1  0  0  0
 10 11  1  0  0  0
 11 12  1  0  0  0
 12 28  1  0  0  0
 28 29  1  0  0  0
 29 30  2  0  0  0
 30 31  1  0  0  0
 31 32  2  0  0  0
 32 33  1  0  0  0
 10 13  1  0  0  0
 13 14  2  0  0  0
 13 15  1  0  0  0
 15 18  1  0  0  0
 18 19  2  0  0  0
 19 20  1  0  0  0
 20 21  2  0  0  0
 21 22  1  0  0  0
 22 23  2  0  0  0
 23 24  1  0  0  0
 24 25  2  0  0  0
 25 26  1  0  0  0
 26 27  2  0  0  0
 15 16  1  0  0  0
 16 17  1  0  0  0
 17 34  1  0  0  0
 34 35  1  0  0  0
 35 37  1  0  0  0
 37 38  2  0  0  0
 38 39  1  0  0  0
 39 40  2  0  0  0
 40 41  1  0  0  0
 41 42  2  0  0  0
 12  2  1  0  0  0
 33 29  1  0  0  0
 27 18  1  0  0  0
 42 37  1  0  0  0
  9  3  1  0  0  0
 17 10  1  0  0  0
 27 22  1  0  0  0
 35 36  1  0  0  0
M  END
> <minimizedAffinity>
-8.37551

> <CNNscore>
0.2442533076

> <CNNaffinity>
6.7904672623

> <CNN_VS>
1.6585941315

> <CNNaffinity_variance>
0.3876709044

$$$$



 42 48  0  0  0  0  0  0  0  0999 V2000
   -8.0235   -5.0891  -23.3603 O   0  0  0  0  0  0  0  0  0  0  0  0
   -8.4324   -3.6521  -23.2271 C   0  0  0  0  0  0  0  0  0  0  0  0
   -7.5628   -2.6919  -22.4707 C   0  0  0  0  0  0  0  0  0  0  0  0
   -6.2845   -3.1689  -21.8475 C   0  0  0  0  0  0  0  0  0  0  0  0
   -5.4150   -2.2088  -21.0911 C   0  0  0  0  0  0  0  0  0  0  0  0
   -5.8239   -0.7717  -20.9579 C   0  0  0  0  0  0  0  0  0  0  0  0
   -4.7444   -0.1075  -20.1555 Cl  0  0  0  0  0  0  0  0  0  0  0  0
   -7.1022   -0.2948  -21.5811 C   0  0  0  0  0  0  0  0  0  0  0  0
   -7.9717   -1.2549  -22.3375 C   0  0  0  0  0  0  0  0  0  0  0  0
   -9.2501   -0.7780  -22.9607 C   0  0  0  0  0  0  0  0  0  0  0  0
  -10.1195   -1.7381  -23.7171 C   0  0  0  0  0  0  0  0  0  0  0  0
   -9.7107   -3.1751  -23.8503 N   0  0  0  0  0  0  0  0  0  0  0  0
  -10.4936   -0.1590  -23.5268 C   0  0  0  0  0  0  0  0  0  0  0  0
  -11.5466   -0.8683  -24.3254 O   0  0  0  0  0  0  0  0  0  0  0  0
  -10.4992    1.2940  -23.1540 N   0  0  0  0  0  0  0  0  0  0  0  0
   -9.2592    1.5729  -22.3575 C   0  0  0  0  0  0  0  0  0  0  0  0
   -8.4872    0.2924  -22.2380 C   0  0  0  0  0  0  0  0  0  0  0  0
  -11.5589    2.2926  -23.5144 C   0  0  0  0  0  0  0  0  0  0  0  0
  -12.8602    2.3073  -22.7687 C   0  0  0  0  0  0  0  0  0  0  0  0
  -13.9199    3.3059  -23.1291 N   0  0  0  0  0  0  0  0  0  0  0  0
  -13.6781    4.2897  -24.2353 C   0  0  0  0  0  0  0  0  0  0  0  0
  -12.3767    4.2749  -24.9810 C   0  0  0  0  0  0  0  0  0  0  0  0
  -12.1350    5.2588  -26.0873 C   0  0  0  0  0  0  0  0  0  0  0  0
  -10.8335    5.2439  -26.8330 C   0  0  0  0  0  0  0  0  0  0  0  0
   -9.7740    4.2454  -26.4725 C   0  0  0  0  0  0  0  0  0  0  0  0
  -10.0157    3.2616  -25.3663 C   0  0  0  0  0  0  0  0  0  0  0  0
  -11.3170    3.2764  -24.6206 C   0  0  0  0  0  0  0  0  0  0  0  0
  -10.5803   -4.1353  -24.6067 C   0  0  0  0  0  0  0  0  0  0  0  0
  -10.1256   -4.6764  -25.9297 C   0  0  0  0  0  0  0  0  0  0  0  0
   -9.5680   -3.8724  -27.0665 N   0  0  0  0  0  0  0  0  0  0  0  0
   -9.2465   -4.8156  -28.1876 N   0  0  0  0  0  0  0  0  0  0  0  0
   -9.6055   -6.2028  -27.7437 C   0  0  0  0  0  0  0  0  0  0  0  0
  -10.1489   -6.1167  -26.3482 O   0  0  0  0  0  0  0  0  0  0  0  0
   -7.1814    0.1137  -21.5217 C   0  0  0  0  0  0  0  0  0  0  0  0
   -5.9057    0.5764  -22.1607 N   0  0  0  0  0  0  0  0  0  0  0  0
   -5.2517   -0.0828  -22.4877 H   0  0  0  0  0  0  0  0  0  0  0  0
   -5.6264    2.0433  -22.3017 C   0  0  0  0  0  0  0  0  0  0  0  0
   -4.2301    2.5181  -22.5753 N   0  0  0  0  0  0  0  0  0  0  0  0
   -3.9509    3.9851  -22.7162 C   0  0  0  0  0  0  0  0  0  0  0  0
   -5.0679    4.9773  -22.5836 N   0  0  0  0  0  0  0  0  0  0  0  0
   -6.4642    4.5026  -22.3100 C   0  0  0  0  0  0  0  0  0  0  0  0
   -6.7435    3.0357  -22.1690 N   0  0  0  0  0  0  0  0  0  0  0  0
  1  2  2  0  0  0
  2  3  1  0  0  0
  3  4  2  0  0  0
  4  5  1  0  0  0
  5  6  2  0  0  0
  6  7  1  0  0  0
  6  8  1  0  0  0
  8  9  2  0  0  0
  9 10  1  0  0  0
 10 11  1  0  0  0
 11 12  1  0  0  0
 12 28  1  0  0  0
 28 29  1  0  0  0
 29 30  2  0  0  0
 30 31  1  0  0  0
 31 32  2  0  0  0
 32 33  1  0  0  0
 10 13  1  0  0  0
 13 14  2  0  0  0
 13 15  1  0  0  0
 15 18  1  0  0  0
 18 19  2  0  0  0
 19 20  1  0  0  0
 20 21  2  0  0  0
 21 22  1  0  0  0
 22 23  2  0  0  0
 23 24  1  0  0  0
 24 25  2  0  0  0
 25 26  1  0  0  0
 26 27  2  0  0  0
 15 16  1  0  0  0
 16 17  1  0  0  0
 17 34  1  0  0  0
 34 35  1  0  0  0
 35 37  1  0  0  0
 37 38  2  0  0  0
 38 39  1  0  0  0
 39 40  2  0  0  0
 40 41  1  0  0  0
 41 42  2  0  0  0
 12  2  1  0  0  0
 33 29  1  0  0  0
 27 18  1  0  0  0
 42 37  1  0  0  0
  9  3  1  0  0  0
 17 10  1  0  0  0
 27 22  1  0  0  0
 35 36  1  0  0  0
M  END
> <minimizedAffinity>
-8.87537

> <CNNscore>
0.1993790567

> <CNNaffinity>
6.6202559471

> <CNN_VS>
1.3199403286

> <CNNaffinity_variance>
0.2022732943

$$$$



 42 48  0  0  0  0  0  0  0  0999 V2000
  -13.4218    3.2645  -23.9061 O   0  0  0  0  0  0  0  0  0  0  0  0
  -12.0028    2.7900  -23.8004 C   0  0  0  0  0  0  0  0  0  0  0  0
  -11.7131    1.3358  -23.5735 C   0  0  0  0  0  0  0  0  0  0  0  0
  -12.8424    0.3561  -23.4524 C   0  0  0  0  0  0  0  0  0  0  0  0
  -12.5527   -1.0980  -23.2256 C   0  0  0  0  0  0  0  0  0  0  0  0
  -11.1336   -1.5724  -23.1199 C   0  0  0  0  0  0  0  0  0  0  0  0
  -11.2085   -3.0541  -22.8976 Cl  0  0  0  0  0  0  0  0  0  0  0  0
  -10.0043   -0.5927  -23.2410 C   0  0  0  0  0  0  0  0  0  0  0  0
  -10.2940    0.8614  -23.4678 C   0  0  0  0  0  0  0  0  0  0  0  0
   -9.1646    1.8412  -23.5890 C   0  0  0  0  0  0  0  0  0  0  0  0
   -9.4544    3.2953  -23.8158 C   0  0  0  0  0  0  0  0  0  0  0  0
  -10.8734    3.7698  -23.9215 N   0  0  0  0  0  0  0  0  0  0  0  0
   -7.9383    2.6992  -23.6894 C   0  0  0  0  0  0  0  0  0  0  0  0
   -7.9158    4.1822  -23.9131 O   0  0  0  0  0  0  0  0  0  0  0  0
   -6.7385    1.8137  -23.5267 N   0  0  0  0  0  0  0  0  0  0  0  0
   -7.2233    0.4085  -23.3258 C   0  0  0  0  0  0  0  0  0  0  0  0
   -8.7227    0.4255  -23.3643 C   0  0  0  0  0  0  0  0  0  0  0  0
   -5.3055    2.2559  -23.5593 C   0  0  0  0  0  0  0  0  0  0  0  0
   -4.7262    2.8300  -24.8181 C   0  0  0  0  0  0  0  0  0  0  0  0
   -3.2933    3.2722  -24.8507 N   0  0  0  0  0  0  0  0  0  0  0  0
   -2.4396    3.1403  -23.6244 C   0  0  0  0  0  0  0  0  0  0  0  0
   -3.0190    2.5662  -22.3655 C   0  0  0  0  0  0  0  0  0  0  0  0
   -2.1653    2.4343  -21.1391 C   0  0  0  0  0  0  0  0  0  0  0  0
   -2.7447    1.8602  -19.8802 C   0  0  0  0  0  0  0  0  0  0  0  0
   -4.1776    1.4180  -19.8477 C   0  0  0  0  0  0  0  0  0  0  0  0
   -5.0313    1.5499  -21.0741 C   0  0  0  0  0  0  0  0  0  0  0  0
   -4.4520    2.1240  -22.3329 C   0  0  0  0  0  0  0  0  0  0  0  0
  -11.1631    5.2240  -24.1484 C   0  0  0  0  0  0  0  0  0  0  0  0
  -11.8246    5.6676  -25.4194 C   0  0  0  0  0  0  0  0  0  0  0  0
  -13.2881    5.9401  -25.6032 N   0  0  0  0  0  0  0  0  0  0  0  0
  -13.5067    6.3575  -27.0272 N   0  0  0  0  0  0  0  0  0  0  0  0
  -12.1782    6.3429  -27.7237 C   0  0  0  0  0  0  0  0  0  0  0  0
  -11.1386    5.9165  -26.7300 O   0  0  0  0  0  0  0  0  0  0  0  0
   -9.6222   -0.7643  -23.2059 C   0  0  0  0  0  0  0  0  0  0  0  0
   -9.4878   -1.6516  -22.0040 N   0  0  0  0  0  0  0  0  0  0  0  0
  -10.2772   -2.1183  -21.6459 H   0  0  0  0  0  0  0  0  0  0  0  0
   -8.1507   -1.8279  -21.3475 C   0  0  0  0  0  0  0  0  0  0  0  0
   -7.1152   -2.7099  -21.9798 N   0  0  0  0  0  0  0  0  0  0  0  0
   -5.7780   -2.8861  -21.3234 C   0  0  0  0  0  0  0  0  0  0  0  0
   -5.4764   -2.1804  -20.0346 N   0  0  0  0  0  0  0  0  0  0  0  0
   -6.5119   -1.2984  -19.4023 C   0  0  0  0  0  0  0  0  0  0  0  0
   -7.8489   -1.1221  -20.0587 N   0  0  0  0  0  0  0  0  0  0  0  0
  1  2  2  0  0  0
  2  3  1  0  0  0
  3  4  2  0  0  0
  4  5  1  0  0  0
  5  6  2  0  0  0
  6  7  1  0  0  0
  6  8  1  0  0  0
  8  9  2  0  0  0
  9 10  1  0  0  0
 10 11  1  0  0  0
 11 12  1  0  0  0
 12 28  1  0  0  0
 28 29  1  0  0  0
 29 30  2  0  0  0
 30 31  1  0  0  0
 31 32  2  0  0  0
 32 33  1  0  0  0
 10 13  1  0  0  0
 13 14  2  0  0  0
 13 15  1  0  0  0
 15 18  1  0  0  0
 18 19  2  0  0  0
 19 20  1  0  0  0
 20 21  2  0  0  0
 21 22  1  0  0  0
 22 23  2  0  0  0
 23 24  1  0  0  0
 24 25  2  0  0  0
 25 26  1  0  0  0
 26 27  2  0  0  0
 15 16  1  0  0  0
 16 17  1  0  0  0
 17 34  1  0  0  0
 34 35  1  0  0  0
 35 37  1  0  0  0
 37 38  2  0  0  0
 38 39  1  0  0  0
 39 40  2  0  0  0
 40 41  1  0  0  0
 41 42  2  0  0  0
 12  2  1  0  0  0
 33 29  1  0  0  0
 27 18  1  0  0  0
 42 37  1  0  0  0
  9  3  1  0  0  0
 17 10  1  0  0  0
 27 22  1  0  0  0
 35 36  1  0  0  0
M  END
> <minimizedAffinity>
-8.33410

> <CNNscore>
0.1992838681

> <CNNaffinity>
6.5835838318

> <CNN_VS>
1.3120020628

> <CNNaffinity_variance>
0.1546459198

$$$$



 42 48  0  0  0  0  0  0  0  0999 V2000
   -5.1327   -3.4918  -20.1940 O   0  0  0  0  0  0  0  0  0  0  0  0
   -5.9853   -2.5645  -21.0083 C   0  0  0  0  0  0  0  0  0  0  0  0
   -6.7798   -3.0967  -22.1640 C   0  0  0  0  0  0  0  0  0  0  0  0
   -6.7216   -4.5561  -22.5054 C   0  0  0  0  0  0  0  0  0  0  0  0
   -7.5160   -5.0883  -23.6611 C   0  0  0  0  0  0  0  0  0  0  0  0
   -8.3687   -4.1610  -24.4754 C   0  0  0  0  0  0  0  0  0  0  0  0
   -9.0123   -5.0108  -25.5308 Cl  0  0  0  0  0  0  0  0  0  0  0  0
   -8.4269   -2.7015  -24.1340 C   0  0  0  0  0  0  0  0  0  0  0  0
   -7.6324   -2.1694  -22.9784 C   0  0  0  0  0  0  0  0  0  0  0  0
   -7.6906   -0.7099  -22.6369 C   0  0  0  0  0  0  0  0  0  0  0  0
   -6.8962   -0.1777  -21.4812 C   0  0  0  0  0  0  0  0  0  0  0  0
   -6.0435   -1.1050  -20.6669 N   0  0  0  0  0  0  0  0  0  0  0  0
   -7.8479    0.7655  -22.4163 C   0  0  0  0  0  0  0  0  0  0  0  0
   -7.1802    1.5725  -21.3426 O   0  0  0  0  0  0  0  0  0  0  0  0
   -8.7902    1.2921  -23.4579 N   0  0  0  0  0  0  0  0  0  0  0  0
   -9.2152    0.1422  -24.3222 C   0  0  0  0  0  0  0  0  0  0  0  0
   -8.5357   -1.0950  -23.8148 C   0  0  0  0  0  0  0  0  0  0  0  0
   -9.2301    2.7182  -23.6086 C   0  0  0  0  0  0  0  0  0  0  0  0
  -10.6860    3.0674  -23.5189 C   0  0  0  0  0  0  0  0  0  0  0  0
  -11.1259    4.4935  -23.6696 N   0  0  0  0  0  0  0  0  0  0  0  0
  -10.1098    5.5703  -23.9100 C   0  0  0  0  0  0  0  0  0  0  0  0
   -8.6538    5.2211  -23.9997 C   0  0  0  0  0  0  0  0  0  0  0  0
   -7.6376    6.2981  -24.2401 C   0  0  0  0  0  0  0  0  0  0  0  0
   -6.1816    5.9488  -24.3298 C   0  0  0  0  0  0  0  0  0  0  0  0
   -5.7418    4.5227  -24.1791 C   0  0  0  0  0  0  0  0  0  0  0  0
   -6.7579    3.4458  -23.9387 C   0  0  0  0  0  0  0  0  0  0  0  0
   -8.2139    3.7950  -23.8490 C   0  0  0  0  0  0  0  0  0  0  0  0
   -5.2491   -0.5728  -19.5112 C   0  0  0  0  0  0  0  0  0  0  0  0
   -4.1461    0.4151  -19.7508 C   0  0  0  0  0  0  0  0  0  0  0  0
   -3.7761    1.5584  -18.8532 N   0  0  0  0  0  0  0  0  0  0  0  0
   -2.6208    2.2831  -19.4778 N   0  0  0  0  0  0  0  0  0  0  0  0
   -2.2768    1.5876  -20.7615 C   0  0  0  0  0  0  0  0  0  0  0  0
   -3.2195    0.4331  -20.9303 O   0  0  0  0  0  0  0  0  0  0  0  0
   -8.6765   -2.4752  -24.3853 C   0  0  0  0  0  0  0  0  0  0  0  0
  -10.0350   -3.0090  -24.7309 N   0  0  0  0  0  0  0  0  0  0  0  0
  -10.1280   -3.7162  -25.4095 H   0  0  0  0  0  0  0  0  0  0  0  0
  -11.2518   -2.4655  -24.0427 C   0  0  0  0  0  0  0  0  0  0  0  0
  -11.8565   -1.1710  -24.4994 N   0  0  0  0  0  0  0  0  0  0  0  0
  -13.0734   -0.6275  -23.8112 C   0  0  0  0  0  0  0  0  0  0  0  0
  -13.6857   -1.3785  -22.6661 N   0  0  0  0  0  0  0  0  0  0  0  0
  -13.0810   -2.6729  -22.2093 C   0  0  0  0  0  0  0  0  0  0  0  0
  -11.8641   -3.2164  -22.8975 N   0  0  0  0  0  0  0  0  0  0  0  0
  1  2  2  0  0  0
  2  3  1  0  0  0
  3  4  2  0  0  0
  4  5  1  0  0  0
  5  6  2  0  0  0
  6  7  1  0  0  0
  6  8  1  0  0  0
  8  9  2  0  0  0
  9 10  1  0  0  0
 10 11  1  0  0  0
 11 12  1  0  0  0
 12 28  1  0  0  0
 28 29  1  0  0  0
 29 30  2  0  0  0
 30 31  1  0  0  0
 31 32  2  0  0  0
 32 33  1  0  0  0
 10 13  1  0  0  0
 13 14  2  0  0  0
 13 15  1  0  0  0
 15 18  1  0  0  0
 18 19  2  0  0  0
 19 20  1  0  0  0
 20 21  2  0  0  0
 21 22  1  0  0  0
 22 23  2  0  0  0
 23 24  1  0  0  0
 24 25  2  0  0  0
 25 26  1  0  0  0
 26 27  2  0  0  0
 15 16  1  0  0  0
 16 17  1  0  0  0
 17 34  1  0  0  0
 34 35  1  0  0  0
 35 37  1  0  0  0
 37 38  2  0  0  0
 38 39  1  0  0  0
 39 40  2  0  0  0
 40 41  1  0  0  0
 41 42  2  0  0  0
 12  2  1  0  0  0
 33 29  1  0  0  0
 27 18  1  0  0  0
 42 37  1  0  0  0
  9  3  1  0  0  0
 17 10  1  0  0  0
 27 22  1  0  0  0
 35 36  1  0  0  0
M  END
> <minimizedAffinity>
-8.43920

> <CNNscore>
0.1983736455

> <CNNaffinity>
6.5904450417

> <CNN_VS>
1.3073706627

> <CNNaffinity_variance>
0.5403721929

$$$$



 42 48  0  0  0  0  0  0  0  0999 V2000
  -11.3949   -4.6928  -25.3355 O   0  0  0  0  0  0  0  0  0  0  0  0
  -10.1802   -4.2880  -24.5542 C   0  0  0  0  0  0  0  0  0  0  0  0
   -8.8558   -4.9319  -24.8399 C   0  0  0  0  0  0  0  0  0  0  0  0
   -8.7462   -5.9805  -25.9068 C   0  0  0  0  0  0  0  0  0  0  0  0
   -7.4219   -6.6243  -26.1925 C   0  0  0  0  0  0  0  0  0  0  0  0
   -6.2071   -6.2195  -25.4111 C   0  0  0  0  0  0  0  0  0  0  0  0
   -5.0765   -7.0473  -25.9466 Cl  0  0  0  0  0  0  0  0  0  0  0  0
   -6.3167   -5.1709  -24.3442 C   0  0  0  0  0  0  0  0  0  0  0  0
   -7.6410   -4.5271  -24.0586 C   0  0  0  0  0  0  0  0  0  0  0  0
   -7.7506   -3.4784  -22.9916 C   0  0  0  0  0  0  0  0  0  0  0  0
   -9.0749   -2.8346  -22.7060 C   0  0  0  0  0  0  0  0  0  0  0  0
  -10.2897   -3.2394  -23.4873 N   0  0  0  0  0  0  0  0  0  0  0  0
   -7.7063   -2.4500  -21.9006 C   0  0  0  0  0  0  0  0  0  0  0  0
   -8.8690   -1.6457  -21.3993 O   0  0  0  0  0  0  0  0  0  0  0  0
   -6.2951   -2.3669  -21.3988 N   0  0  0  0  0  0  0  0  0  0  0  0
   -5.4673   -3.3441  -22.1797 C   0  0  0  0  0  0  0  0  0  0  0  0
   -6.3668   -4.0310  -23.1641 C   0  0  0  0  0  0  0  0  0  0  0  0
   -5.7990   -1.4651  -20.3077 C   0  0  0  0  0  0  0  0  0  0  0  0
   -6.2382   -1.6898  -18.8912 C   0  0  0  0  0  0  0  0  0  0  0  0
   -5.7421   -0.7880  -17.8001 N   0  0  0  0  0  0  0  0  0  0  0  0
   -4.8067    0.3386  -18.1256 C   0  0  0  0  0  0  0  0  0  0  0  0
   -4.3675    0.5633  -19.5421 C   0  0  0  0  0  0  0  0  0  0  0  0
   -3.4321    1.6899  -19.8676 C   0  0  0  0  0  0  0  0  0  0  0  0
   -2.9929    1.9146  -21.2841 C   0  0  0  0  0  0  0  0  0  0  0  0
   -3.4891    1.0127  -22.3752 C   0  0  0  0  0  0  0  0  0  0  0  0
   -4.4244   -0.1138  -22.0497 C   0  0  0  0  0  0  0  0  0  0  0  0
   -4.8636   -0.3385  -20.6332 C   0  0  0  0  0  0  0  0  0  0  0  0
  -11.6141   -2.5955  -23.2016 C   0  0  0  0  0  0  0  0  0  0  0  0
  -11.7948   -1.1227  -23.4208 C   0  0  0  0  0  0  0  0  0  0  0  0
  -10.7515   -0.1725  -23.9292 N   0  0  0  0  0  0  0  0  0  0  0  0
  -11.3625    1.1960  -23.9928 N   0  0  0  0  0  0  0  0  0  0  0  0
  -12.7835    1.0915  -23.5237 C   0  0  0  0  0  0  0  0  0  0  0  0
  -13.0506   -0.3416  -23.1702 O   0  0  0  0  0  0  0  0  0  0  0  0
   -5.9548   -5.0854  -24.1482 C   0  0  0  0  0  0  0  0  0  0  0  0
   -4.9185   -4.7772  -25.1880 N   0  0  0  0  0  0  0  0  0  0  0  0
   -4.1659   -5.3954  -25.3312 H   0  0  0  0  0  0  0  0  0  0  0  0
   -5.0288   -3.5270  -26.0095 C   0  0  0  0  0  0  0  0  0  0  0  0
   -4.5654   -2.2162  -25.4464 N   0  0  0  0  0  0  0  0  0  0  0  0
   -4.6758   -0.9661  -26.2679 C   0  0  0  0  0  0  0  0  0  0  0  0
   -5.2495   -1.0267  -27.6525 N   0  0  0  0  0  0  0  0  0  0  0  0
   -5.7129   -2.3375  -28.2156 C   0  0  0  0  0  0  0  0  0  0  0  0
   -5.6026   -3.5876  -27.3941 N   0  0  0  0  0  0  0  0  0  0  0  0
  1  2  2  0  0  0
  2  3  1  0  0  0
  3  4  2  0  0  0
  4  5  1  0  0  0
  5  6  2  0  0  0
  6  7  1  0  0  0
  6  8  1  0  0  0
  8  9  2  0  0  0
  9 10  1  0  0  0
 10 11  1  0  0  0
 11 12  1  0  0  0
 12 28  1  0  0  0
 28 29  1  0  0  0
 29 30  2  0  0  0
 30 31  1  0  0  0
 31 32  2  0  0  0
 32 33  1  0  0  0
 10 13  1  0  0  0
 13 14  2  0  0  0
 13 15  1  0  0  0
 15 18  1  0  0  0
 18 19  2  0  0  0
 19 20  1  0  0  0
 20 21  2  0  0  0
 21 22  1  0  0  0
 22 23  2  0  0  0
 23 24  1  0  0  0
 24 25  2  0  0  0
 25 26  1  0  0  0
 26 27  2  0  0  0
 15 16  1  0  0  0
 16 17  1  0  0  0
 17 34  1  0  0  0
 34 35  1  0  0  0
 35 37  1  0  0  0
 37 38  2  0  0  0
 38 39  1  0  0  0
 39 40  2  0  0  0
 40 41  1  0  0  0
 41 42  2  0  0  0
 12  2  1  0  0  0
 33 29  1  0  0  0
 27 18  1  0  0  0
 42 37  1  0  0  0
  9  3  1  0  0  0
 17 10  1  0  0  0
 27 22  1  0  0  0
 35 36  1  0  0  0
M  END
> <minimizedAffinity>
-8.31499

> <CNNscore>
0.1939474940

> <CNNaffinity>
6.5267219543

> <CNN_VS>
1.2658413649

> <CNNaffinity_variance>
0.1095549688

$$$$



 42 48  0  0  0  0  0  0  0  0999 V2000
   -4.8399   -3.5987  -19.0738 O   0  0  0  0  0  0  0  0  0  0  0  0
   -5.5618   -3.0825  -20.2831 C   0  0  0  0  0  0  0  0  0  0  0  0
   -6.0492   -4.0391  -21.3307 C   0  0  0  0  0  0  0  0  0  0  0  0
   -5.8147   -5.5118  -21.1690 C   0  0  0  0  0  0  0  0  0  0  0  0
   -6.3021   -6.4683  -22.2166 C   0  0  0  0  0  0  0  0  0  0  0  0
   -7.0240   -5.9521  -23.4259 C   0  0  0  0  0  0  0  0  0  0  0  0
   -7.3633   -7.1581  -24.2509 Cl  0  0  0  0  0  0  0  0  0  0  0  0
   -7.2584   -4.4794  -23.5877 C   0  0  0  0  0  0  0  0  0  0  0  0
   -6.7710   -3.5229  -22.5401 C   0  0  0  0  0  0  0  0  0  0  0  0
   -7.0055   -2.0502  -22.7018 C   0  0  0  0  0  0  0  0  0  0  0  0
   -6.5181   -1.0937  -21.6542 C   0  0  0  0  0  0  0  0  0  0  0  0
   -5.7962   -1.6098  -20.4448 N   0  0  0  0  0  0  0  0  0  0  0  0
   -7.3116   -0.6121  -22.9988 C   0  0  0  0  0  0  0  0  0  0  0  0
   -6.9497    0.5623  -22.1387 O   0  0  0  0  0  0  0  0  0  0  0  0
   -8.0433   -0.5546  -24.3070 N   0  0  0  0  0  0  0  0  0  0  0  0
   -8.1893   -1.9571  -24.8185 C   0  0  0  0  0  0  0  0  0  0  0  0
   -7.5479   -2.8814  -23.8264 C   0  0  0  0  0  0  0  0  0  0  0  0
   -8.5414    0.6874  -24.9848 C   0  0  0  0  0  0  0  0  0  0  0  0
   -9.6770    1.4639  -24.3870 C   0  0  0  0  0  0  0  0  0  0  0  0
  -10.1751    2.7059  -25.0647 N   0  0  0  0  0  0  0  0  0  0  0  0
   -9.5376    3.1713  -26.3402 C   0  0  0  0  0  0  0  0  0  0  0  0
   -8.4020    2.3948  -26.9380 C   0  0  0  0  0  0  0  0  0  0  0  0
   -7.7645    2.8602  -28.2136 C   0  0  0  0  0  0  0  0  0  0  0  0
   -6.6290    2.0836  -28.8114 C   0  0  0  0  0  0  0  0  0  0  0  0
   -6.1309    0.8417  -28.1336 C   0  0  0  0  0  0  0  0  0  0  0  0
   -6.7684    0.3762  -26.8581 C   0  0  0  0  0  0  0  0  0  0  0  0
   -7.9039    1.1528  -26.2603 C   0  0  0  0  0  0  0  0  0  0  0  0
   -5.3088   -0.6532  -19.3972 C   0  0  0  0  0  0  0  0  0  0  0  0
   -4.2438    0.3481  -19.7331 C   0  0  0  0  0  0  0  0  0  0  0  0
   -3.8322    1.5153  -18.8857 N   0  0  0  0  0  0  0  0  0  0  0  0
   -2.7373    2.2466  -19.6043 N   0  0  0  0  0  0  0  0  0  0  0  0
   -2.4722    1.5314  -20.8959 C   0  0  0  0  0  0  0  0  0  0  0  0
   -3.4032    0.3580  -20.9755 O   0  0  0  0  0  0  0  0  0  0  0  0
   -7.4638   -4.3748  -23.9391 C   0  0  0  0  0  0  0  0  0  0  0  0
   -6.6632   -4.9998  -25.0430 N   0  0  0  0  0  0  0  0  0  0  0  0
   -5.6930   -5.1281  -24.9355 H   0  0  0  0  0  0  0  0  0  0  0  0
   -7.3406   -5.4292  -26.3104 C   0  0  0  0  0  0  0  0  0  0  0  0
   -6.5847   -6.2262  -27.3319 N   0  0  0  0  0  0  0  0  0  0  0  0
   -7.2622   -6.6557  -28.5995 C   0  0  0  0  0  0  0  0  0  0  0  0
   -8.6955   -6.2882  -28.8454 N   0  0  0  0  0  0  0  0  0  0  0  0
   -9.4514   -5.4912  -27.8239 C   0  0  0  0  0  0  0  0  0  0  0  0
   -8.7740   -5.0618  -26.5565 N   0  0  0  0  0  0  0  0  0  0  0  0
  1  2  2  0  0  0
  2  3  1  0  0  0
  3  4  2  0  0  0
  4  5  1  0  0  0
  5  6  2  0  0  0
  6  7  1  0  0  0
  6  8  1  0  0  0
  8  9  2  0  0  0
  9 10  1  0  0  0
 10 11  1  0  0  0
 11 12  1  0  0  0
 12 28  1  0  0  0
 28 29  1  0  0  0
 29 30  2  0  0  0
 30 31  1  0  0  0
 31 32  2  0  0  0
 32 33  1  0  0  0
 10 13  1  0  0  0
 13 14  2  0  0  0
 13 15  1  0  0  0
 15 18  1  0  0  0
 18 19  2  0  0  0
 19 20  1  0  0  0
 20 21  2  0  0  0
 21 22  1  0  0  0
 22 23  2  0  0  0
 23 24  1  0  0  0
 24 25  2  0  0  0
 25 26  1  0  0  0
 26 27  2  0  0  0
 15 16  1  0  0  0
 16 17  1  0  0  0
 17 34  1  0  0  0
 34 35  1  0  0  0
 35 37  1  0  0  0
 37 38  2  0  0  0
 38 39  1  0  0  0
 39 40  2  0  0  0
 40 41  1  0  0  0
 41 42  2  0  0  0
 12  2  1  0  0  0
 33 29  1  0  0  0
 27 18  1  0  0  0
 42 37  1  0  0  0
  9  3  1  0  0  0
 17 10  1  0  0  0
 27 22  1  0  0  0
 35 36  1  0  0  0
M  END
> <minimizedAffinity>
-8.21780

> <CNNscore>
0.1849645823

> <CNNaffinity>
6.4805526733

> <CNN_VS>
1.1986727715

> <CNNaffinity_variance>
0.1525147110

$$$$
