


 46 53  0  0  0  0  0  0  0  0999 V2000
   -7.7135   -3.3258  -23.8229 O   0  0  0  0  0  0  0  0  0  0  0  0
   -8.1668   -1.8960  -23.8170 C   0  0  0  0  0  0  0  0  0  0  0  0
   -9.6171   -1.5698  -23.6161 C   0  0  0  0  0  0  0  0  0  0  0  0
  -10.6140   -2.6734  -23.4211 C   0  0  0  0  0  0  0  0  0  0  0  0
  -12.0642   -2.3472  -23.2203 C   0  0  0  0  0  0  0  0  0  0  0  0
  -12.5175   -0.9174  -23.2143 C   0  0  0  0  0  0  0  0  0  0  0  0
  -14.0007   -0.9548  -22.9930 Cl  0  0  0  0  0  0  0  0  0  0  0  0
  -11.5206    0.1863  -23.4093 C   0  0  0  0  0  0  0  0  0  0  0  0
  -10.0704   -0.1399  -23.6102 C   0  0  0  0  0  0  0  0  0  0  0  0
   -9.0734    0.9637  -23.8051 C   0  0  0  0  0  0  0  0  0  0  0  0
   -7.6232    0.6375  -24.0060 C   0  0  0  0  0  0  0  0  0  0  0  0
   -7.1699   -0.7923  -24.0119 N   0  0  0  0  0  0  0  0  0  0  0  0
   -8.1968    2.1674  -23.9866 C   0  0  0  0  0  0  0  0  0  0  0  0
   -6.7130    2.1524  -24.2057 O   0  0  0  0  0  0  0  0  0  0  0  0
   -9.0645    3.3885  -23.9103 N   0  0  0  0  0  0  0  0  0  0  0  0
  -10.4774    2.9397  -23.6818 C   0  0  0  0  0  0  0  0  0  0  0  0
  -10.4829    1.4411  -23.6168 C   0  0  0  0  0  0  0  0  0  0  0  0
   -8.6007    4.8091  -24.0399 C   0  0  0  0  0  0  0  0  0  0  0  0
   -7.5373    5.3374  -23.1234 C   0  0  0  0  0  0  0  0  0  0  0  0
   -7.0736    6.7580  -23.2530 N   0  0  0  0  0  0  0  0  0  0  0  0
   -7.6732    7.6503  -24.2990 C   0  0  0  0  0  0  0  0  0  0  0  0
   -8.7367    7.1219  -25.2155 C   0  0  0  0  0  0  0  0  0  0  0  0
   -9.3364    8.0143  -26.2616 C   0  0  0  0  0  0  0  0  0  0  0  0
  -10.3998    7.4858  -27.1781 C   0  0  0  0  0  0  0  0  0  0  0  0
  -10.8635    6.0653  -27.0485 C   0  0  0  0  0  0  0  0  0  0  0  0
  -10.2638    5.1730  -26.0024 C   0  0  0  0  0  0  0  0  0  0  0  0
   -9.2005    5.7013  -25.0860 C   0  0  0  0  0  0  0  0  0  0  0  0
   -5.7195   -1.1185  -24.2128 C   0  0  0  0  0  0  0  0  0  0  0  0
   -4.6908   -0.5773  -23.2648 C   0  0  0  0  0  0  0  0  0  0  0  0
   -4.9221   -0.6518  -21.7847 N   0  0  0  0  0  0  0  0  0  0  0  0
   -4.6874    0.2722  -20.6266 C   0  0  0  0  0  0  0  0  0  0  0  0
   -5.2491   -0.7573  -19.6914 C   0  0  0  0  0  0  0  0  0  0  0  0
   -5.0144    0.1668  -18.5333 C   0  0  0  0  0  0  0  0  0  0  0  0
   -5.5761   -0.8627  -17.5980 O   0  0  0  0  0  0  0  0  0  0  0  0
   -5.8108   -1.7867  -18.7561 C   0  0  0  0  0  0  0  0  0  0  0  0
   -5.4838   -1.6813  -20.8494 C   0  0  0  0  0  0  0  0  0  0  0  0
   -5.0793   -0.7025  -20.7781 H   0  0  0  0  0  0  0  0  0  0  0  0
  -11.6866    0.5723  -23.4013 C   0  0  0  0  0  0  0  0  0  0  0  0
  -13.0629    1.1353  -23.5980 N   0  0  0  0  0  0  0  0  0  0  0  0
  -13.8159    0.5347  -23.8017 H   0  0  0  0  0  0  0  0  0  0  0  0
  -13.2920    2.6133  -23.4845 C   0  0  0  0  0  0  0  0  0  0  0  0
  -13.4163    3.2514  -22.1327 N   0  0  0  0  0  0  0  0  0  0  0  0
  -13.6454    4.7294  -22.0192 C   0  0  0  0  0  0  0  0  0  0  0  0
  -13.7503    5.5694  -23.2575 C   0  0  0  0  0  0  0  0  0  0  0  0
  -13.6261    4.9313  -24.6093 C   0  0  0  0  0  0  0  0  0  0  0  0
  -13.3969    3.4534  -24.7228 N   0  0  0  0  0  0  0  0  0  0  0  0
  1  2  2  0  0  0
  2  3  1  0  0  0
  3  4  2  0  0  0
  4  5  1  0  0  0
  5  6  2  0  0  0
  6  7  1  0  0  0
  6  8  1  0  0  0
  8  9  2  0  0  0
  9 10  1  0  0  0
 10 11  1  0  0  0
 11 12  1  0  0  0
 12 28  1  0  0  0
 28 29  1  0  0  0
 29 30  1  0  0  0
 30 31  1  0  0  0
 31 32  1  0  0  0
 32 33  1  0  0  0
 33 34  1  0  0  0
 34 35  1  0  0  0
 32 36  1  0  0  0
 10 13  1  0  0  0
 13 14  2  0  0  0
 13 15  1  0  0  0
 15 18  1  0  0  0
 18 19  2  0  0  0
 19 20  1  0  0  0
 20 21  2  0  0  0
 21 22  1  0  0  0
 22 23  2  0  0  0
 23 24  1  0  0  0
 24 25  2  0  0  0
 25 26  1  0  0  0
 26 27  2  0  0  0
 15 16  1  0  0  0
 16 17  1  0  0  0
 17 38  1  0  0  0
 38 39  1  0  0  0
 39 41  1  0  0  0
 41 42  2  0  0  0
 42 43  1  0  0  0
 43 44  2  0  0  0
 44 45  1  0  0  0
 45 46  2  0  0  0
 12  2  1  0  0  0
 36 30  1  0  0  0
 27 18  1  0  0  0
 46 41  1  0  0  0
  9  3  1  0  0  0
 17 10  1  0  0  0
 35 32  1  0  0  0
 27 22  1  0  0  0
 30 37  1  0  0  0
 39 40  1  0  0  0
M  CHG 1  30   1
M  END
> <minimizedAffinity>
-9.01208

> <CNNscore>
0.7464616299

> <CNNaffinity>
7.4713134766

> <CNN_VS>
5.5770487785

> <CNNaffinity_variance>
0.2668145895

$$$$



 46 53  0  0  0  0  0  0  0  0999 V2000
   -7.6850   -3.1804  -22.3827 O   0  0  0  0  0  0  0  0  0  0  0  0
   -8.1395   -1.7793  -22.6658 C   0  0  0  0  0  0  0  0  0  0  0  0
   -9.6016   -1.4820  -22.8209 C   0  0  0  0  0  0  0  0  0  0  0  0
  -10.6090   -2.5859  -22.6929 C   0  0  0  0  0  0  0  0  0  0  0  0
  -12.0710   -2.2885  -22.8480 C   0  0  0  0  0  0  0  0  0  0  0  0
  -12.5256   -0.8874  -23.1311 C   0  0  0  0  0  0  0  0  0  0  0  0
  -14.0215   -0.9489  -23.2242 Cl  0  0  0  0  0  0  0  0  0  0  0  0
  -11.5181    0.2165  -23.2591 C   0  0  0  0  0  0  0  0  0  0  0  0
  -10.0561   -0.0808  -23.1040 C   0  0  0  0  0  0  0  0  0  0  0  0
   -9.0485    1.0231  -23.2319 C   0  0  0  0  0  0  0  0  0  0  0  0
   -7.5865    0.7258  -23.0768 C   0  0  0  0  0  0  0  0  0  0  0  0
   -7.1320   -0.6754  -22.7937 N   0  0  0  0  0  0  0  0  0  0  0  0
   -8.1622    2.2234  -23.3857 C   0  0  0  0  0  0  0  0  0  0  0  0
   -6.6657    2.2333  -23.2833 O   0  0  0  0  0  0  0  0  0  0  0  0
   -9.0350    3.4121  -23.6597 N   0  0  0  0  0  0  0  0  0  0  0  0
  -10.4608    2.9464  -23.6754 C   0  0  0  0  0  0  0  0  0  0  0  0
  -10.4691    1.4699  -23.4110 C   0  0  0  0  0  0  0  0  0  0  0  0
   -8.5647    4.8194  -23.8796 C   0  0  0  0  0  0  0  0  0  0  0  0
   -7.6127    5.4523  -22.9084 C   0  0  0  0  0  0  0  0  0  0  0  0
   -7.1424    6.8595  -23.1282 N   0  0  0  0  0  0  0  0  0  0  0  0
   -7.6240    7.6339  -24.3192 C   0  0  0  0  0  0  0  0  0  0  0  0
   -8.5759    7.0009  -25.2904 C   0  0  0  0  0  0  0  0  0  0  0  0
   -9.0575    7.7753  -26.4814 C   0  0  0  0  0  0  0  0  0  0  0  0
  -10.0095    7.1423  -27.4525 C   0  0  0  0  0  0  0  0  0  0  0  0
  -10.4798    5.7351  -27.2327 C   0  0  0  0  0  0  0  0  0  0  0  0
   -9.9982    4.9608  -26.0417 C   0  0  0  0  0  0  0  0  0  0  0  0
   -9.0463    5.5937  -25.0706 C   0  0  0  0  0  0  0  0  0  0  0  0
   -5.6699   -0.9727  -22.6386 C   0  0  0  0  0  0  0  0  0  0  0  0
   -4.6492   -0.0434  -23.2255 C   0  0  0  0  0  0  0  0  0  0  0  0
   -3.9278    0.9319  -22.3433 N   0  0  0  0  0  0  0  0  0  0  0  0
   -3.4105    2.3301  -22.5086 C   0  0  0  0  0  0  0  0  0  0  0  0
   -2.9076    2.3112  -21.0956 C   0  0  0  0  0  0  0  0  0  0  0  0
   -2.3903    3.7094  -21.2610 C   0  0  0  0  0  0  0  0  0  0  0  0
   -1.8873    3.6906  -19.8479 O   0  0  0  0  0  0  0  0  0  0  0  0
   -2.4047    2.2924  -19.6826 C   0  0  0  0  0  0  0  0  0  0  0  0
   -3.4249    0.9131  -20.9302 C   0  0  0  0  0  0  0  0  0  0  0  0
   -3.4372    1.5951  -21.7433 H   0  0  0  0  0  0  0  0  0  0  0  0
  -11.6847    0.5941  -23.3385 C   0  0  0  0  0  0  0  0  0  0  0  0
  -13.0454    1.1780  -23.5784 N   0  0  0  0  0  0  0  0  0  0  0  0
  -13.8051    0.5870  -23.7854 H   0  0  0  0  0  0  0  0  0  0  0  0
  -13.2487    2.6622  -23.5031 C   0  0  0  0  0  0  0  0  0  0  0  0
  -13.2579    3.4826  -24.7588 N   0  0  0  0  0  0  0  0  0  0  0  0
  -13.4611    4.9669  -24.6834 C   0  0  0  0  0  0  0  0  0  0  0  0
  -13.6552    5.6307  -23.3523 C   0  0  0  0  0  0  0  0  0  0  0  0
  -13.6460    4.8102  -22.0967 C   0  0  0  0  0  0  0  0  0  0  0  0
  -13.4427    3.3260  -22.1720 N   0  0  0  0  0  0  0  0  0  0  0  0
  1  2  2  0  0  0
  2  3  1  0  0  0
  3  4  2  0  0  0
  4  5  1  0  0  0
  5  6  2  0  0  0
  6  7  1  0  0  0
  6  8  1  0  0  0
  8  9  2  0  0  0
  9 10  1  0  0  0
 10 11  1  0  0  0
 11 12  1  0  0  0
 12 28  1  0  0  0
 28 29  1  0  0  0
 29 30  1  0  0  0
 30 31  1  0  0  0
 31 32  1  0  0  0
 32 33  1  0  0  0
 33 34  1  0  0  0
 34 35  1  0  0  0
 32 36  1  0  0  0
 10 13  1  0  0  0
 13 14  2  0  0  0
 13 15  1  0  0  0
 15 18  1  0  0  0
 18 19  2  0  0  0
 19 20  1  0  0  0
 20 21  2  0  0  0
 21 22  1  0  0  0
 22 23  2  0  0  0
 23 24  1  0  0  0
 24 25  2  0  0  0
 25 26  1  0  0  0
 26 27  2  0  0  0
 15 16  1  0  0  0
 16 17  1  0  0  0
 17 38  1  0  0  0
 38 39  1  0  0  0
 39 41  1  0  0  0
 41 42  2  0  0  0
 42 43  1  0  0  0
 43 44  2  0  0  0
 44 45  1  0  0  0
 45 46  2  0  0  0
 12  2  1  0  0  0
 36 30  1  0  0  0
 27 18  1  0  0  0
 46 41  1  0  0  0
  9  3  1  0  0  0
 17 10  1  0  0  0
 35 32  1  0  0  0
 27 22  1  0  0  0
 30 37  1  0  0  0
 39 40  1  0  0  0
M  CHG 1  30   1
M  END
> <minimizedAffinity>
-8.35935

> <CNNscore>
0.6986268163

> <CNNaffinity>
7.2574539185

> <CNN_VS>
5.0702519417

> <CNNaffinity_variance>
0.1830109954

$$$$



 46 53  0  0  0  0  0  0  0  0999 V2000
   -7.4997   -3.4553  -23.4049 O   0  0  0  0  0  0  0  0  0  0  0  0
   -8.0241   -2.0756  -23.6719 C   0  0  0  0  0  0  0  0  0  0  0  0
   -9.4863   -1.7840  -23.5066 C   0  0  0  0  0  0  0  0  0  0  0  0
  -10.4238   -2.8721  -23.0742 C   0  0  0  0  0  0  0  0  0  0  0  0
  -11.8858   -2.5805  -22.9089 C   0  0  0  0  0  0  0  0  0  0  0  0
  -12.4103   -1.2007  -23.1759 C   0  0  0  0  0  0  0  0  0  0  0  0
  -13.8867   -1.2626  -22.9178 Cl  0  0  0  0  0  0  0  0  0  0  0  0
  -11.4728   -0.1126  -23.6083 C   0  0  0  0  0  0  0  0  0  0  0  0
  -10.0107   -0.4042  -23.7736 C   0  0  0  0  0  0  0  0  0  0  0  0
   -9.0731    0.6839  -24.2059 C   0  0  0  0  0  0  0  0  0  0  0  0
   -7.6111    0.3923  -24.3712 C   0  0  0  0  0  0  0  0  0  0  0  0
   -7.0866   -0.9874  -24.1042 N   0  0  0  0  0  0  0  0  0  0  0  0
   -8.2605    1.8669  -24.6420 C   0  0  0  0  0  0  0  0  0  0  0  0
   -6.7808    1.8780  -24.8877 O   0  0  0  0  0  0  0  0  0  0  0  0
   -9.1875    3.0370  -24.7894 N   0  0  0  0  0  0  0  0  0  0  0  0
  -10.5729    2.5772  -24.4443 C   0  0  0  0  0  0  0  0  0  0  0  0
  -10.5022    1.1229  -24.0837 C   0  0  0  0  0  0  0  0  0  0  0  0
   -8.7974    4.4235  -25.2082 C   0  0  0  0  0  0  0  0  0  0  0  0
   -9.1736    4.9296  -26.5691 C   0  0  0  0  0  0  0  0  0  0  0  0
   -8.7835    6.3161  -26.9880 N   0  0  0  0  0  0  0  0  0  0  0  0
   -8.0172    7.1965  -26.0458 C   0  0  0  0  0  0  0  0  0  0  0  0
   -7.6411    6.6904  -24.6848 C   0  0  0  0  0  0  0  0  0  0  0  0
   -6.8748    7.5709  -23.7426 C   0  0  0  0  0  0  0  0  0  0  0  0
   -6.4986    7.0647  -22.3816 C   0  0  0  0  0  0  0  0  0  0  0  0
   -6.8887    5.6782  -21.9628 C   0  0  0  0  0  0  0  0  0  0  0  0
   -7.6550    4.7978  -22.9050 C   0  0  0  0  0  0  0  0  0  0  0  0
   -8.0311    5.3039  -24.2659 C   0  0  0  0  0  0  0  0  0  0  0  0
   -5.6245   -1.2790  -24.2696 C   0  0  0  0  0  0  0  0  0  0  0  0
   -4.6251   -0.6514  -23.3437 C   0  0  0  0  0  0  0  0  0  0  0  0
   -4.8511   -0.6861  -21.8612 N   0  0  0  0  0  0  0  0  0  0  0  0
   -4.5006    0.2137  -20.7135 C   0  0  0  0  0  0  0  0  0  0  0  0
   -5.1708   -0.7353  -19.7647 C   0  0  0  0  0  0  0  0  0  0  0  0
   -4.8202    0.1646  -18.6170 C   0  0  0  0  0  0  0  0  0  0  0  0
   -5.4904   -0.7844  -17.6681 O   0  0  0  0  0  0  0  0  0  0  0  0
   -5.8409   -1.6842  -18.8159 C   0  0  0  0  0  0  0  0  0  0  0  0
   -5.5213   -1.6351  -20.9124 C   0  0  0  0  0  0  0  0  0  0  0  0
   -5.0048   -0.7097  -20.8532 H   0  0  0  0  0  0  0  0  0  0  0  0
  -11.6578    0.2592  -23.6730 C   0  0  0  0  0  0  0  0  0  0  0  0
  -13.0259    0.8564  -23.5268 N   0  0  0  0  0  0  0  0  0  0  0  0
  -13.8213    0.2767  -23.5513 H   0  0  0  0  0  0  0  0  0  0  0  0
  -13.1824    2.3368  -23.3432 C   0  0  0  0  0  0  0  0  0  0  0  0
  -13.6671    3.1865  -24.4804 N   0  0  0  0  0  0  0  0  0  0  0  0
  -13.8235    4.6670  -24.2967 C   0  0  0  0  0  0  0  0  0  0  0  0
  -13.4953    5.2978  -22.9760 C   0  0  0  0  0  0  0  0  0  0  0  0
  -13.0106    4.4481  -21.8389 C   0  0  0  0  0  0  0  0  0  0  0  0
  -12.8541    2.9677  -22.0225 N   0  0  0  0  0  0  0  0  0  0  0  0
  1  2  2  0  0  0
  2  3  1  0  0  0
  3  4  2  0  0  0
  4  5  1  0  0  0
  5  6  2  0  0  0
  6  7  1  0  0  0
  6  8  1  0  0  0
  8  9  2  0  0  0
  9 10  1  0  0  0
 10 11  1  0  0  0
 11 12  1  0  0  0
 12 28  1  0  0  0
 28 29  1  0  0  0
 29 30  1  0  0  0
 30 31  1  0  0  0
 31 32  1  0  0  0
 32 33  1  0  0  0
 33 34  1  0  0  0
 34 35  1  0  0  0
 32 36  1  0  0  0
 10 13  1  0  0  0
 13 14  2  0  0  0
 13 15  1  0  0  0
 15 18  1  0  0  0
 18 19  2  0  0  0
 19 20  1  0  0  0
 20 21  2  0  0  0
 21 22  1  0  0  0
 22 23  2  0  0  0
 23 24  1  0  0  0
 24 25  2  0  0  0
 25 26  1  0  0  0
 26 27  2  0  0  0
 15 16  1  0  0  0
 16 17  1  0  0  0
 17 38  1  0  0  0
 38 39  1  0  0  0
 39 41  1  0  0  0
 41 42  2  0  0  0
 42 43  1  0  0  0
 43 44  2  0  0  0
 44 45  1  0  0  0
 45 46  2  0  0  0
 12  2  1  0  0  0
 36 30  1  0  0  0
 27 18  1  0  0  0
 46 41  1  0  0  0
  9  3  1  0  0  0
 17 10  1  0  0  0
 35 32  1  0  0  0
 27 22  1  0  0  0
 30 37  1  0  0  0
 39 40  1  0  0  0
M  CHG 1  30   1
M  END
> <minimizedAffinity>
-9.20118

> <CNNscore>
0.5993542671

> <CNNaffinity>
7.1402101517

> <CNN_VS>
4.2795152664

> <CNNaffinity_variance>
0.5714226961

$$$$



 46 53  0  0  0  0  0  0  0  0999 V2000
  -13.2119    3.6327  -24.1701 O   0  0  0  0  0  0  0  0  0  0  0  0
  -11.9365    2.8595  -24.0099 C   0  0  0  0  0  0  0  0  0  0  0  0
  -11.9823    1.4005  -23.6646 C   0  0  0  0  0  0  0  0  0  0  0  0
  -13.3034    0.7146  -23.4796 C   0  0  0  0  0  0  0  0  0  0  0  0
  -13.3491   -0.7443  -23.1343 C   0  0  0  0  0  0  0  0  0  0  0  0
  -12.0738   -1.5175  -22.9741 C   0  0  0  0  0  0  0  0  0  0  0  0
  -12.4809   -2.9210  -22.6356 Cl  0  0  0  0  0  0  0  0  0  0  0  0
  -10.7527   -0.8316  -23.1591 C   0  0  0  0  0  0  0  0  0  0  0  0
  -10.7069    0.6273  -23.5044 C   0  0  0  0  0  0  0  0  0  0  0  0
   -9.3858    1.3132  -23.6895 C   0  0  0  0  0  0  0  0  0  0  0  0
   -9.3401    2.7722  -24.0348 C   0  0  0  0  0  0  0  0  0  0  0  0
  -10.6154    3.5454  -24.1950 N   0  0  0  0  0  0  0  0  0  0  0  0
   -7.9977    1.8606  -23.8430 C   0  0  0  0  0  0  0  0  0  0  0  0
   -7.6413    3.2772  -24.1837 O   0  0  0  0  0  0  0  0  0  0  0  0
   -7.0286    0.7426  -23.5960 N   0  0  0  0  0  0  0  0  0  0  0  0
   -7.8177   -0.4957  -23.2898 C   0  0  0  0  0  0  0  0  0  0  0  0
   -9.2746   -0.1430  -23.3476 C   0  0  0  0  0  0  0  0  0  0  0  0
   -5.5329    0.8451  -23.6464 C   0  0  0  0  0  0  0  0  0  0  0  0
   -4.8214    0.7888  -24.9656 C   0  0  0  0  0  0  0  0  0  0  0  0
   -3.3257    0.8913  -25.0159 N   0  0  0  0  0  0  0  0  0  0  0  0
   -2.5417    1.0499  -23.7470 C   0  0  0  0  0  0  0  0  0  0  0  0
   -3.2533    1.1061  -22.4278 C   0  0  0  0  0  0  0  0  0  0  0  0
   -2.4693    1.2648  -21.1588 C   0  0  0  0  0  0  0  0  0  0  0  0
   -3.1810    1.3210  -19.8396 C   0  0  0  0  0  0  0  0  0  0  0  0
   -4.6766    1.2186  -19.7893 C   0  0  0  0  0  0  0  0  0  0  0  0
   -5.4606    1.0599  -21.0582 C   0  0  0  0  0  0  0  0  0  0  0  0
   -4.7490    1.0037  -22.3774 C   0  0  0  0  0  0  0  0  0  0  0  0
  -10.5697    5.0044  -24.5403 C   0  0  0  0  0  0  0  0  0  0  0  0
  -11.8358    5.8081  -24.5703 C   0  0  0  0  0  0  0  0  0  0  0  0
  -12.3465    6.3547  -25.8705 N   0  0  0  0  0  0  0  0  0  0  0  0
  -13.6655    6.3347  -26.5845 C   0  0  0  0  0  0  0  0  0  0  0  0
  -13.0686    7.1276  -27.7092 C   0  0  0  0  0  0  0  0  0  0  0  0
  -14.3877    7.1076  -28.4232 C   0  0  0  0  0  0  0  0  0  0  0  0
  -13.7909    7.9006  -29.5480 O   0  0  0  0  0  0  0  0  0  0  0  0
  -12.4719    7.9206  -28.8340 C   0  0  0  0  0  0  0  0  0  0  0  0
  -11.7497    7.1476  -26.9953 C   0  0  0  0  0  0  0  0  0  0  0  0
  -12.6937    6.7263  -26.7546 H   0  0  0  0  0  0  0  0  0  0  0  0
  -10.4192   -1.0819  -23.1059 C   0  0  0  0  0  0  0  0  0  0  0  0
  -10.1676   -2.5555  -22.9828 N   0  0  0  0  0  0  0  0  0  0  0  0
  -10.3995   -3.0266  -22.1501 H   0  0  0  0  0  0  0  0  0  0  0  0
   -9.5626   -3.3113  -24.1284 C   0  0  0  0  0  0  0  0  0  0  0  0
   -8.3720   -4.1944  -23.8990 N   0  0  0  0  0  0  0  0  0  0  0  0
   -7.7670   -4.9503  -25.0447 C   0  0  0  0  0  0  0  0  0  0  0  0
   -8.3526   -4.8231  -26.4198 C   0  0  0  0  0  0  0  0  0  0  0  0
   -9.5432   -3.9401  -26.6492 C   0  0  0  0  0  0  0  0  0  0  0  0
  -10.1481   -3.1842  -25.5036 N   0  0  0  0  0  0  0  0  0  0  0  0
  1  2  2  0  0  0
  2  3  1  0  0  0
  3  4  2  0  0  0
  4  5  1  0  0  0
  5  6  2  0  0  0
  6  7  1  0  0  0
  6  8  1  0  0  0
  8  9  2  0  0  0
  9 10  1  0  0  0
 10 11  1  0  0  0
 11 12  1  0  0  0
 12 28  1  0  0  0
 28 29  1  0  0  0
 29 30  1  0  0  0
 30 31  1  0  0  0
 31 32  1  0  0  0
 32 33  1  0  0  0
 33 34  1  0  0  0
 34 35  1  0  0  0
 32 36  1  0  0  0
 10 13  1  0  0  0
 13 14  2  0  0  0
 13 15  1  0  0  0
 15 18  1  0  0  0
 18 19  2  0  0  0
 19 20  1  0  0  0
 20 21  2  0  0  0
 21 22  1  0  0  0
 22 23  2  0  0  0
 23 24  1  0  0  0
 24 25  2  0  0  0
 25 26  1  0  0  0
 26 27  2  0  0  0
 15 16  1  0  0  0
 16 17  1  0  0  0
 17 38  1  0  0  0
 38 39  1  0  0  0
 39 41  1  0  0  0
 41 42  2  0  0  0
 42 43  1  0  0  0
 43 44  2  0  0  0
 44 45  1  0  0  0
 45 46  2  0  0  0
 12  2  1  0  0  0
 36 30  1  0  0  0
 27 18  1  0  0  0
 46 41  1  0  0  0
  9  3  1  0  0  0
 17 10  1  0  0  0
 35 32  1  0  0  0
 27 22  1  0  0  0
 30 37  1  0  0  0
 39 40  1  0  0  0
M  CHG 1  30   1
M  END
> <minimizedAffinity>
-8.08224

> <CNNscore>
0.4038885534

> <CNNaffinity>
6.8964271545

> <CNN_VS>
2.7853879929

> <CNNaffinity_variance>
0.0671530813

$$$$



 46 53  0  0  0  0  0  0  0  0999 V2000
   -2.7582    4.5368  -23.7489 O   0  0  0  0  0  0  0  0  0  0  0  0
   -4.1160    3.8998  -23.7702 C   0  0  0  0  0  0  0  0  0  0  0  0
   -5.3321    4.7350  -24.0416 C   0  0  0  0  0  0  0  0  0  0  0  0
   -5.1903    6.2072  -24.2917 C   0  0  0  0  0  0  0  0  0  0  0  0
   -6.4064    7.0423  -24.5632 C   0  0  0  0  0  0  0  0  0  0  0  0
   -7.7642    6.4053  -24.5845 C   0  0  0  0  0  0  0  0  0  0  0  0
   -8.7347    7.5104  -24.8798 Cl  0  0  0  0  0  0  0  0  0  0  0  0
   -7.9060    4.9332  -24.3343 C   0  0  0  0  0  0  0  0  0  0  0  0
   -6.6900    4.0980  -24.0629 C   0  0  0  0  0  0  0  0  0  0  0  0
   -6.8317    2.6258  -23.8128 C   0  0  0  0  0  0  0  0  0  0  0  0
   -5.6157    1.7907  -23.5413 C   0  0  0  0  0  0  0  0  0  0  0  0
   -4.2578    2.4277  -23.5200 N   0  0  0  0  0  0  0  0  0  0  0  0
   -7.1281    1.1736  -23.5817 C   0  0  0  0  0  0  0  0  0  0  0  0
   -6.1187    0.1035  -23.2887 O   0  0  0  0  0  0  0  0  0  0  0  0
   -8.6112    0.9794  -23.6950 N   0  0  0  0  0  0  0  0  0  0  0  0
   -9.2314    2.3116  -23.9961 C   0  0  0  0  0  0  0  0  0  0  0  0
   -8.1317    3.3291  -24.0689 C   0  0  0  0  0  0  0  0  0  0  0  0
   -9.3451   -0.3189  -23.5352 C   0  0  0  0  0  0  0  0  0  0  0  0
   -8.5825   -1.6092  -23.4760 C   0  0  0  0  0  0  0  0  0  0  0  0
   -9.3164   -2.9075  -23.3163 N   0  0  0  0  0  0  0  0  0  0  0  0
  -10.8130   -2.9156  -23.2156 C   0  0  0  0  0  0  0  0  0  0  0  0
  -11.5756   -1.6253  -23.2748 C   0  0  0  0  0  0  0  0  0  0  0  0
  -13.0723   -1.6334  -23.1741 C   0  0  0  0  0  0  0  0  0  0  0  0
  -13.8349   -0.3430  -23.2333 C   0  0  0  0  0  0  0  0  0  0  0  0
  -13.1009    0.9552  -23.3930 C   0  0  0  0  0  0  0  0  0  0  0  0
  -11.6043    0.9633  -23.4937 C   0  0  0  0  0  0  0  0  0  0  0  0
  -10.8417   -0.3269  -23.4345 C   0  0  0  0  0  0  0  0  0  0  0  0
   -3.0417    1.5924  -23.2486 C   0  0  0  0  0  0  0  0  0  0  0  0
   -2.5671    1.3945  -21.8395 C   0  0  0  0  0  0  0  0  0  0  0  0
   -3.4763    0.7707  -20.8226 N   0  0  0  0  0  0  0  0  0  0  0  0
   -4.3476   -0.4497  -20.7857 C   0  0  0  0  0  0  0  0  0  0  0  0
   -4.7620   -0.1114  -19.3843 C   0  0  0  0  0  0  0  0  0  0  0  0
   -5.6333   -1.3319  -19.3475 C   0  0  0  0  0  0  0  0  0  0  0  0
   -6.0479   -0.9937  -17.9461 O   0  0  0  0  0  0  0  0  0  0  0  0
   -5.1765    0.2267  -17.9830 C   0  0  0  0  0  0  0  0  0  0  0  0
   -3.8908    1.1089  -19.4212 C   0  0  0  0  0  0  0  0  0  0  0  0
   -4.0945    0.3465  -20.1310 H   0  0  0  0  0  0  0  0  0  0  0  0
   -8.3020    4.7929  -24.3487 C   0  0  0  0  0  0  0  0  0  0  0  0
   -9.4410    5.5474  -23.7297 N   0  0  0  0  0  0  0  0  0  0  0  0
   -9.2601    6.2931  -23.1129 H   0  0  0  0  0  0  0  0  0  0  0  0
  -10.8557    5.1657  -24.0502 C   0  0  0  0  0  0  0  0  0  0  0  0
  -11.2815    4.9956  -25.4784 N   0  0  0  0  0  0  0  0  0  0  0  0
  -12.6963    4.6139  -25.7988 C   0  0  0  0  0  0  0  0  0  0  0  0
  -13.6853    4.4023  -24.6911 C   0  0  0  0  0  0  0  0  0  0  0  0
  -13.2596    4.5724  -23.2629 C   0  0  0  0  0  0  0  0  0  0  0  0
  -11.8449    4.9541  -22.9424 N   0  0  0  0  0  0  0  0  0  0  0  0
  1  2  2  0  0  0
  2  3  1  0  0  0
  3  4  2  0  0  0
  4  5  1  0  0  0
  5  6  2  0  0  0
  6  7  1  0  0  0
  6  8  1  0  0  0
  8  9  2  0  0  0
  9 10  1  0  0  0
 10 11  1  0  0  0
 11 12  1  0  0  0
 12 28  1  0  0  0
 28 29  1  0  0  0
 29 30  1  0  0  0
 30 31  1  0  0  0
 31 32  1  0  0  0
 32 33  1  0  0  0
 33 34  1  0  0  0
 34 35  1  0  0  0
 32 36  1  0  0  0
 10 13  1  0  0  0
 13 14  2  0  0  0
 13 15  1  0  0  0
 15 18  1  0  0  0
 18 19  2  0  0  0
 19 20  1  0  0  0
 20 21  2  0  0  0
 21 22  1  0  0  0
 22 23  2  0  0  0
 23 24  1  0  0  0
 24 25  2  0  0  0
 25 26  1  0  0  0
 26 27  2  0  0  0
 15 16  1  0  0  0
 16 17  1  0  0  0
 17 38  1  0  0  0
 38 39  1  0  0  0
 39 41  1  0  0  0
 41 42  2  0  0  0
 42 43  1  0  0  0
 43 44  2  0  0  0
 44 45  1  0  0  0
 45 46  2  0  0  0
 12  2  1  0  0  0
 36 30  1  0  0  0
 27 18  1  0  0  0
 46 41  1  0  0  0
  9  3  1  0  0  0
 17 10  1  0  0  0
 35 32  1  0  0  0
 27 22  1  0  0  0
 30 37  1  0  0  0
 39 40  1  0  0  0
M  CHG 1  30   1
M  END
> <minimizedAffinity>
-8.19322

> <CNNscore>
0.2382919937

> <CNNaffinity>
6.7243928909

> <CNN_VS>
1.6023689508

> <CNNaffinity_variance>
0.3117641807

$$$$



 46 53  0  0  0  0  0  0  0  0999 V2000
  -11.4766   -3.3991  -23.1429 O   0  0  0  0  0  0  0  0  0  0  0  0
  -10.5964   -2.1846  -23.1300 C   0  0  0  0  0  0  0  0  0  0  0  0
  -11.1979   -0.8206  -23.2972 C   0  0  0  0  0  0  0  0  0  0  0  0
  -12.6795   -0.6712  -23.4773 C   0  0  0  0  0  0  0  0  0  0  0  0
  -13.2809    0.6927  -23.6445 C   0  0  0  0  0  0  0  0  0  0  0  0
  -12.4007    1.9072  -23.6316 C   0  0  0  0  0  0  0  0  0  0  0  0
  -13.3143    3.0819  -23.8209 Cl  0  0  0  0  0  0  0  0  0  0  0  0
  -10.9191    1.7578  -23.4515 C   0  0  0  0  0  0  0  0  0  0  0  0
  -10.3177    0.3939  -23.2843 C   0  0  0  0  0  0  0  0  0  0  0  0
   -8.8360    0.2445  -23.1042 C   0  0  0  0  0  0  0  0  0  0  0  0
   -8.2346   -1.1194  -22.9370 C   0  0  0  0  0  0  0  0  0  0  0  0
   -9.1148   -2.3339  -22.9499 N   0  0  0  0  0  0  0  0  0  0  0  0
   -7.3457    0.2516  -22.9344 C   0  0  0  0  0  0  0  0  0  0  0  0
   -6.4739   -0.9547  -22.7477 O   0  0  0  0  0  0  0  0  0  0  0  0
   -6.8802    1.6767  -22.9841 N   0  0  0  0  0  0  0  0  0  0  0  0
   -8.0829    2.5504  -23.1846 C   0  0  0  0  0  0  0  0  0  0  0  0
   -9.2916    1.6653  -23.2589 C   0  0  0  0  0  0  0  0  0  0  0  0
   -5.4612    2.1457  -22.8558 C   0  0  0  0  0  0  0  0  0  0  0  0
   -4.3370    1.1535  -22.8947 C   0  0  0  0  0  0  0  0  0  0  0  0
   -2.9180    1.6225  -22.7664 N   0  0  0  0  0  0  0  0  0  0  0  0
   -2.6233    3.0837  -22.5992 C   0  0  0  0  0  0  0  0  0  0  0  0
   -3.7476    4.0759  -22.5603 C   0  0  0  0  0  0  0  0  0  0  0  0
   -3.4528    5.5372  -22.3931 C   0  0  0  0  0  0  0  0  0  0  0  0
   -4.5772    6.5293  -22.3541 C   0  0  0  0  0  0  0  0  0  0  0  0
   -5.9961    6.0603  -22.4824 C   0  0  0  0  0  0  0  0  0  0  0  0
   -6.2908    4.5991  -22.6497 C   0  0  0  0  0  0  0  0  0  0  0  0
   -5.1666    3.6069  -22.6886 C   0  0  0  0  0  0  0  0  0  0  0  0
   -8.5133   -3.6979  -22.7827 C   0  0  0  0  0  0  0  0  0  0  0  0
   -7.4128   -4.1494  -23.6964 C   0  0  0  0  0  0  0  0  0  0  0  0
   -7.7426   -4.7057  -25.0498 N   0  0  0  0  0  0  0  0  0  0  0  0
   -8.9832   -4.7892  -25.8888 C   0  0  0  0  0  0  0  0  0  0  0  0
   -8.2089   -5.4925  -26.9639 C   0  0  0  0  0  0  0  0  0  0  0  0
   -9.4497   -5.5759  -27.8028 C   0  0  0  0  0  0  0  0  0  0  0  0
   -8.6754   -6.2792  -28.8779 O   0  0  0  0  0  0  0  0  0  0  0  0
   -7.4348   -6.1957  -28.0390 C   0  0  0  0  0  0  0  0  0  0  0  0
   -6.9683   -5.4090  -26.1250 C   0  0  0  0  0  0  0  0  0  0  0  0
   -7.9668   -5.0840  -25.9702 H   0  0  0  0  0  0  0  0  0  0  0  0
  -10.7074    2.1209  -23.4536 C   0  0  0  0  0  0  0  0  0  0  0  0
  -11.0448    3.5798  -23.3649 N   0  0  0  0  0  0  0  0  0  0  0  0
  -11.7245    3.8897  -22.7237 H   0  0  0  0  0  0  0  0  0  0  0  0
  -10.3468    4.5664  -24.2532 C   0  0  0  0  0  0  0  0  0  0  0  0
  -10.3579    4.3750  -25.7409 N   0  0  0  0  0  0  0  0  0  0  0  0
   -9.6598    5.3617  -26.6293 C   0  0  0  0  0  0  0  0  0  0  0  0
   -8.9506    6.5398  -26.0299 C   0  0  0  0  0  0  0  0  0  0  0  0
   -8.9395    6.7312  -24.5422 C   0  0  0  0  0  0  0  0  0  0  0  0
   -9.6376    5.7446  -23.6539 N   0  0  0  0  0  0  0  0  0  0  0  0
  1  2  2  0  0  0
  2  3  1  0  0  0
  3  4  2  0  0  0
  4  5  1  0  0  0
  5  6  2  0  0  0
  6  7  1  0  0  0
  6  8  1  0  0  0
  8  9  2  0  0  0
  9 10  1  0  0  0
 10 11  1  0  0  0
 11 12  1  0  0  0
 12 28  1  0  0  0
 28 29  1  0  0  0
 29 30  1  0  0  0
 30 31  1  0  0  0
 31 32  1  0  0  0
 32 33  1  0  0  0
 33 34  1  0  0  0
 34 35  1  0  0  0
 32 36  1  0  0  0
 10 13  1  0  0  0
 13 14  2  0  0  0
 13 15  1  0  0  0
 15 18  1  0  0  0
 18 19  2  0  0  0
 19 20  1  0  0  0
 20 21  2  0  0  0
 21 22  1  0  0  0
 22 23  2  0  0  0
 23 24  1  0  0  0
 24 25  2  0  0  0
 25 26  1  0  0  0
 26 27  2  0  0  0
 15 16  1  0  0  0
 16 17  1  0  0  0
 17 38  1  0  0  0
 38 39  1  0  0  0
 39 41  1  0  0  0
 41 42  2  0  0  0
 42 43  1  0  0  0
 43 44  2  0  0  0
 44 45  1  0  0  0
 45 46  2  0  0  0
 12  2  1  0  0  0
 36 30  1  0  0  0
 27 18  1  0  0  0
 46 41  1  0  0  0
  9  3  1  0  0  0
 17 10  1  0  0  0
 35 32  1  0  0  0
 27 22  1  0  0  0
 30 37  1  0  0  0
 39 40  1  0  0  0
M  CHG 1  30   1
M  END
> <minimizedAffinity>
-8.29649

> <CNNscore>
0.1971781552

> <CNNaffinity>
6.4957590103

> <CNN_VS>
1.2808218002

> <CNNaffinity_variance>
0.3978091180

$$$$



 46 53  0  0  0  0  0  0  0  0999 V2000
   -7.0936   -4.0451  -24.2356 O   0  0  0  0  0  0  0  0  0  0  0  0
   -7.6383   -2.6541  -24.0998 C   0  0  0  0  0  0  0  0  0  0  0  0
   -6.7022   -1.4972  -23.9114 C   0  0  0  0  0  0  0  0  0  0  0  0
   -5.2216   -1.7313  -23.8587 C   0  0  0  0  0  0  0  0  0  0  0  0
   -4.2856   -0.5744  -23.6703 C   0  0  0  0  0  0  0  0  0  0  0  0
   -4.8303    0.8166  -23.5345 C   0  0  0  0  0  0  0  0  0  0  0  0
   -3.6391    1.7121  -23.3633 Cl  0  0  0  0  0  0  0  0  0  0  0  0
   -6.3109    1.0507  -23.5872 C   0  0  0  0  0  0  0  0  0  0  0  0
   -7.2469   -0.1062  -23.7756 C   0  0  0  0  0  0  0  0  0  0  0  0
   -8.7276    0.1279  -23.8283 C   0  0  0  0  0  0  0  0  0  0  0  0
   -9.6636   -1.0290  -24.0167 C   0  0  0  0  0  0  0  0  0  0  0  0
   -9.1189   -2.4200  -24.1525 N   0  0  0  0  0  0  0  0  0  0  0  0
  -10.1766    0.5145  -23.8611 C   0  0  0  0  0  0  0  0  0  0  0  0
  -11.3353   -0.4220  -24.0355 O   0  0  0  0  0  0  0  0  0  0  0  0
  -10.2635    2.0021  -23.6890 N   0  0  0  0  0  0  0  0  0  0  0  0
   -8.8682    2.5349  -23.5498 C   0  0  0  0  0  0  0  0  0  0  0  0
   -7.9190    1.3766  -23.6359 C   0  0  0  0  0  0  0  0  0  0  0  0
  -11.5242    2.8143  -23.6610 C   0  0  0  0  0  0  0  0  0  0  0  0
  -12.5040    2.6397  -22.5388 C   0  0  0  0  0  0  0  0  0  0  0  0
  -13.7648    3.4519  -22.5107 N   0  0  0  0  0  0  0  0  0  0  0  0
  -14.0458    4.4386  -23.6050 C   0  0  0  0  0  0  0  0  0  0  0  0
  -13.0659    4.6132  -24.7273 C   0  0  0  0  0  0  0  0  0  0  0  0
  -13.3469    5.5999  -25.8216 C   0  0  0  0  0  0  0  0  0  0  0  0
  -12.3670    5.7744  -26.9438 C   0  0  0  0  0  0  0  0  0  0  0  0
  -11.1063    4.9623  -26.9717 C   0  0  0  0  0  0  0  0  0  0  0  0
  -10.8254    3.9755  -25.8775 C   0  0  0  0  0  0  0  0  0  0  0  0
  -11.8051    3.8010  -24.7553 C   0  0  0  0  0  0  0  0  0  0  0  0
  -10.0550   -3.5769  -24.3409 C   0  0  0  0  0  0  0  0  0  0  0  0
  -10.4526   -4.0025  -25.7232 C   0  0  0  0  0  0  0  0  0  0  0  0
   -9.4870   -4.7671  -26.5793 N   0  0  0  0  0  0  0  0  0  0  0  0
   -8.0217   -4.6591  -26.8815 C   0  0  0  0  0  0  0  0  0  0  0  0
   -8.1215   -5.8484  -27.7901 C   0  0  0  0  0  0  0  0  0  0  0  0
   -6.6562   -5.7404  -28.0922 C   0  0  0  0  0  0  0  0  0  0  0  0
   -6.7558   -6.9297  -29.0009 O   0  0  0  0  0  0  0  0  0  0  0  0
   -8.2211   -7.0377  -28.6988 C   0  0  0  0  0  0  0  0  0  0  0  0
   -9.5867   -5.9564  -27.4880 C   0  0  0  0  0  0  0  0  0  0  0  0
   -8.8304   -5.2870  -27.1615 H   0  0  0  0  0  0  0  0  0  0  0  0
   -6.4237    1.4534  -23.5455 C   0  0  0  0  0  0  0  0  0  0  0  0
   -5.7744    2.0134  -22.3146 N   0  0  0  0  0  0  0  0  0  0  0  0
   -5.3770    2.9139  -22.3341 H   0  0  0  0  0  0  0  0  0  0  0  0
   -5.7307    1.2014  -21.0543 C   0  0  0  0  0  0  0  0  0  0  0  0
   -6.8618    0.2751  -20.7192 N   0  0  0  0  0  0  0  0  0  0  0  0
   -6.8180   -0.5369  -19.4587 C   0  0  0  0  0  0  0  0  0  0  0  0
   -5.6430   -0.4226  -18.5333 C   0  0  0  0  0  0  0  0  0  0  0  0
   -4.5119    0.5038  -18.8684 C   0  0  0  0  0  0  0  0  0  0  0  0
   -4.5556    1.3157  -20.1288 N   0  0  0  0  0  0  0  0  0  0  0  0
  1  2  2  0  0  0
  2  3  1  0  0  0
  3  4  2  0  0  0
  4  5  1  0  0  0
  5  6  2  0  0  0
  6  7  1  0  0  0
  6  8  1  0  0  0
  8  9  2  0  0  0
  9 10  1  0  0  0
 10 11  1  0  0  0
 11 12  1  0  0  0
 12 28  1  0  0  0
 28 29  1  0  0  0
 29 30  1  0  0  0
 30 31  1  0  0  0
 31 32  1  0  0  0
 32 33  1  0  0  0
 33 34  1  0  0  0
 34 35  1  0  0  0
 32 36  1  0  0  0
 10 13  1  0  0  0
 13 14  2  0  0  0
 13 15  1  0  0  0
 15 18  1  0  0  0
 18 19  2  0  0  0
 19 20  1  0  0  0
 20 21  2  0  0  0
 21 22  1  0  0  0
 22 23  2  0  0  0
 23 24  1  0  0  0
 24 25  2  0  0  0
 25 26  1  0  0  0
 26 27  2  0  0  0
 15 16  1  0  0  0
 16 17  1  0  0  0
 17 38  1  0  0  0
 38 39  1  0  0  0
 39 41  1  0  0  0
 41 42  2  0  0  0
 42 43  1  0  0  0
 43 44  2  0  0  0
 44 45  1  0  0  0
 45 46  2  0  0  0
 12  2  1  0  0  0
 36 30  1  0  0  0
 27 18  1  0  0  0
 46 41  1  0  0  0
  9  3  1  0  0  0
 17 10  1  0  0  0
 35 32  1  0  0  0
 27 22  1  0  0  0
 30 37  1  0  0  0
 39 40  1  0  0  0
M  CHG 1  30   1
M  END
> <minimizedAffinity>
-8.18642

> <CNNscore>
0.1837760508

> <CNNaffinity>
6.5955877304

> <CNN_VS>
1.2121111155

> <CNNaffinity_variance>
0.0802837536

$$$$



 46 53  0  0  0  0  0  0  0  0999 V2000
  -13.5251    3.4179  -23.8000 O   0  0  0  0  0  0  0  0  0  0  0  0
  -12.0992    2.9605  -23.7124 C   0  0  0  0  0  0  0  0  0  0  0  0
  -11.7873    1.4996  -23.5757 C   0  0  0  0  0  0  0  0  0  0  0  0
  -12.9012    0.4962  -23.5266 C   0  0  0  0  0  0  0  0  0  0  0  0
  -12.5892   -0.9646  -23.3900 C   0  0  0  0  0  0  0  0  0  0  0  0
  -11.1633   -1.4220  -23.3023 C   0  0  0  0  0  0  0  0  0  0  0  0
  -11.2154   -2.9157  -23.1750 Cl  0  0  0  0  0  0  0  0  0  0  0  0
  -10.0494   -0.4186  -23.3513 C   0  0  0  0  0  0  0  0  0  0  0  0
  -10.3614    1.0422  -23.4880 C   0  0  0  0  0  0  0  0  0  0  0  0
   -9.2475    2.0457  -23.5370 C   0  0  0  0  0  0  0  0  0  0  0  0
   -9.5595    3.5065  -23.6737 C   0  0  0  0  0  0  0  0  0  0  0  0
  -10.9853    3.9639  -23.7614 N   0  0  0  0  0  0  0  0  0  0  0  0
   -8.0348    2.9278  -23.5722 C   0  0  0  0  0  0  0  0  0  0  0  0
   -8.0351    4.4222  -23.7013 O   0  0  0  0  0  0  0  0  0  0  0  0
   -6.8218    2.0531  -23.4557 N   0  0  0  0  0  0  0  0  0  0  0  0
   -7.2848    0.6304  -23.3485 C   0  0  0  0  0  0  0  0  0  0  0  0
   -8.7839    0.6258  -23.3987 C   0  0  0  0  0  0  0  0  0  0  0  0
   -5.3961    2.5194  -23.4478 C   0  0  0  0  0  0  0  0  0  0  0  0
   -4.8357    3.2387  -24.6387 C   0  0  0  0  0  0  0  0  0  0  0  0
   -3.4100    3.7050  -24.6308 N   0  0  0  0  0  0  0  0  0  0  0  0
   -2.5448    3.4518  -23.4319 C   0  0  0  0  0  0  0  0  0  0  0  0
   -3.1053    2.7324  -22.2410 C   0  0  0  0  0  0  0  0  0  0  0  0
   -2.2400    2.4793  -21.0420 C   0  0  0  0  0  0  0  0  0  0  0  0
   -2.8005    1.7599  -19.8511 C   0  0  0  0  0  0  0  0  0  0  0  0
   -4.2262    1.2937  -19.8591 C   0  0  0  0  0  0  0  0  0  0  0  0
   -5.0914    1.5468  -21.0580 C   0  0  0  0  0  0  0  0  0  0  0  0
   -4.5309    2.2662  -22.2489 C   0  0  0  0  0  0  0  0  0  0  0  0
  -11.2973    5.4247  -23.8981 C   0  0  0  0  0  0  0  0  0  0  0  0
  -11.3334    6.0600  -25.2564 C   0  0  0  0  0  0  0  0  0  0  0  0
  -10.0645    6.5486  -25.8898 N   0  0  0  0  0  0  0  0  0  0  0  0
   -9.4938    6.5246  -27.2767 C   0  0  0  0  0  0  0  0  0  0  0  0
   -8.2700    7.2395  -26.7855 C   0  0  0  0  0  0  0  0  0  0  0  0
   -7.6994    7.2155  -28.1725 C   0  0  0  0  0  0  0  0  0  0  0  0
   -6.4755    7.9304  -27.6814 O   0  0  0  0  0  0  0  0  0  0  0  0
   -7.0462    7.9543  -26.2944 C   0  0  0  0  0  0  0  0  0  0  0  0
   -8.8407    7.2635  -25.3986 C   0  0  0  0  0  0  0  0  0  0  0  0
   -9.2017    6.8808  -26.3205 H   0  0  0  0  0  0  0  0  0  0  0  0
   -9.6649   -0.5859  -23.3239 C   0  0  0  0  0  0  0  0  0  0  0  0
   -9.5803   -1.5028  -22.1397 N   0  0  0  0  0  0  0  0  0  0  0  0
  -10.3888   -1.9588  -21.8116 H   0  0  0  0  0  0  0  0  0  0  0  0
   -8.2642   -1.7248  -21.4554 C   0  0  0  0  0  0  0  0  0  0  0  0
   -7.2314   -2.6116  -22.0856 N   0  0  0  0  0  0  0  0  0  0  0  0
   -5.9152   -2.8336  -21.4013 C   0  0  0  0  0  0  0  0  0  0  0  0
   -5.6317   -2.1689  -20.0868 C   0  0  0  0  0  0  0  0  0  0  0  0
   -6.6645   -1.2822  -19.4567 C   0  0  0  0  0  0  0  0  0  0  0  0
   -7.9806   -1.0601  -20.1409 N   0  0  0  0  0  0  0  0  0  0  0  0
  1  2  2  0  0  0
  2  3  1  0  0  0
  3  4  2  0  0  0
  4  5  1  0  0  0
  5  6  2  0  0  0
  6  7  1  0  0  0
  6  8  1  0  0  0
  8  9  2  0  0  0
  9 10  1  0  0  0
 10 11  1  0  0  0
 11 12  1  0  0  0
 12 28  1  0  0  0
 28 29  1  0  0  0
 29 30  1  0  0  0
 30 31  1  0  0  0
 31 32  1  0  0  0
 32 33  1  0  0  0
 33 34  1  0  0  0
 34 35  1  0  0  0
 32 36  1  0  0  0
 10 13  1  0  0  0
 13 14  2  0  0  0
 13 15  1  0  0  0
 15 18  1  0  0  0
 18 19  2  0  0  0
 19 20  1  0  0  0
 20 21  2  0  0  0
 21 22  1  0  0  0
 22 23  2  0  0  0
 23 24  1  0  0  0
 24 25  2  0  0  0
 25 26  1  0  0  0
 26 27  2  0  0  0
 15 16  1  0  0  0
 16 17  1  0  0  0
 17 38  1  0  0  0
 38 39  1  0  0  0
 39 41  1  0  0  0
 41 42  2  0  0  0
 42 43  1  0  0  0
 43 44  2  0  0  0
 44 45  1  0  0  0
 45 46  2  0  0  0
 12  2  1  0  0  0
 36 30  1  0  0  0
 27 18  1  0  0  0
 46 41  1  0  0  0
  9  3  1  0  0  0
 17 10  1  0  0  0
 35 32  1  0  0  0
 27 22  1  0  0  0
 30 37  1  0  0  0
 39 40  1  0  0  0
M  CHG 1  30   1
M  END
> <minimizedAffinity>
-7.86128

> <CNNscore>
0.1539114267

> <CNNaffinity>
6.5844316483

> <CNN_VS>
1.0134192705

> <CNNaffinity_variance>
0.1749970466

$$$$



 46 53  0  0  0  0  0  0  0  0999 V2000
  -12.4703   -1.3288  -24.6809 O   0  0  0  0  0  0  0  0  0  0  0  0
  -11.0905   -1.4087  -24.0979 C   0  0  0  0  0  0  0  0  0  0  0  0
  -10.2856   -2.6658  -24.2456 C   0  0  0  0  0  0  0  0  0  0  0  0
  -10.8604   -3.8429  -24.9763 C   0  0  0  0  0  0  0  0  0  0  0  0
  -10.0555   -5.1000  -25.1240 C   0  0  0  0  0  0  0  0  0  0  0  0
   -8.6757   -5.1799  -24.5411 C   0  0  0  0  0  0  0  0  0  0  0  0
   -8.1677   -6.5530  -24.8679 Cl  0  0  0  0  0  0  0  0  0  0  0  0
   -8.1009   -4.0028  -23.8104 C   0  0  0  0  0  0  0  0  0  0  0  0
   -8.9058   -2.7458  -23.6627 C   0  0  0  0  0  0  0  0  0  0  0  0
   -8.3310   -1.5686  -22.9320 C   0  0  0  0  0  0  0  0  0  0  0  0
   -9.1359   -0.3115  -22.7843 C   0  0  0  0  0  0  0  0  0  0  0  0
  -10.5157   -0.2316  -23.3672 N   0  0  0  0  0  0  0  0  0  0  0  0
   -7.6274   -0.4786  -22.1790 C   0  0  0  0  0  0  0  0  0  0  0  0
   -8.1802    0.8828  -21.8768 O   0  0  0  0  0  0  0  0  0  0  0  0
   -6.2741   -0.9889  -21.7813 N   0  0  0  0  0  0  0  0  0  0  0  0
   -6.1413   -2.3943  -22.2884 C   0  0  0  0  0  0  0  0  0  0  0  0
   -7.4125   -2.7525  -22.9996 C   0  0  0  0  0  0  0  0  0  0  0  0
   -5.2360   -0.2274  -21.0116 C   0  0  0  0  0  0  0  0  0  0  0  0
   -5.3870   -0.0409  -19.5310 C   0  0  0  0  0  0  0  0  0  0  0  0
   -4.3488    0.7205  -18.7613 N   0  0  0  0  0  0  0  0  0  0  0  0
   -3.1597    1.2954  -19.4723 C   0  0  0  0  0  0  0  0  0  0  0  0
   -3.0088    1.1089  -20.9530 C   0  0  0  0  0  0  0  0  0  0  0  0
   -1.8196    1.6838  -21.6639 C   0  0  0  0  0  0  0  0  0  0  0  0
   -1.6687    1.4972  -23.1446 C   0  0  0  0  0  0  0  0  0  0  0  0
   -2.7069    0.7358  -23.9143 C   0  0  0  0  0  0  0  0  0  0  0  0
   -3.8959    0.1609  -23.2033 C   0  0  0  0  0  0  0  0  0  0  0  0
   -4.0469    0.3474  -21.7227 C   0  0  0  0  0  0  0  0  0  0  0  0
  -11.3207    1.0256  -23.2195 C   0  0  0  0  0  0  0  0  0  0  0  0
  -10.7232    2.3477  -23.6001 C   0  0  0  0  0  0  0  0  0  0  0  0
  -11.6089    3.5424  -23.7956 N   0  0  0  0  0  0  0  0  0  0  0  0
  -11.7148    4.6270  -24.8264 C   0  0  0  0  0  0  0  0  0  0  0  0
  -12.8615    5.2320  -24.0721 C   0  0  0  0  0  0  0  0  0  0  0  0
  -12.9672    6.3165  -25.1029 C   0  0  0  0  0  0  0  0  0  0  0  0
  -14.1140    6.9217  -24.3486 O   0  0  0  0  0  0  0  0  0  0  0  0
  -14.0081    5.8371  -23.3178 C   0  0  0  0  0  0  0  0  0  0  0  0
  -12.7556    4.1476  -23.0413 C   0  0  0  0  0  0  0  0  0  0  0  0
  -12.2112    4.3548  -23.9286 H   0  0  0  0  0  0  0  0  0  0  0  0
   -7.7125   -4.0644  -23.6621 C   0  0  0  0  0  0  0  0  0  0  0  0
   -7.0885   -5.3263  -23.1441 N   0  0  0  0  0  0  0  0  0  0  0  0
   -7.5703   -5.8805  -22.4883 H   0  0  0  0  0  0  0  0  0  0  0  0
   -5.7306   -5.7440  -23.6251 C   0  0  0  0  0  0  0  0  0  0  0  0
   -4.8417   -6.5666  -22.7403 N   0  0  0  0  0  0  0  0  0  0  0  0
   -3.4837   -6.9843  -23.2214 C   0  0  0  0  0  0  0  0  0  0  0  0
   -3.0147   -6.5793  -24.5874 C   0  0  0  0  0  0  0  0  0  0  0  0
   -3.9036   -5.7566  -25.4722 C   0  0  0  0  0  0  0  0  0  0  0  0
   -5.2615   -5.3390  -24.9912 N   0  0  0  0  0  0  0  0  0  0  0  0
  1  2  2  0  0  0
  2  3  1  0  0  0
  3  4  2  0  0  0
  4  5  1  0  0  0
  5  6  2  0  0  0
  6  7  1  0  0  0
  6  8  1  0  0  0
  8  9  2  0  0  0
  9 10  1  0  0  0
 10 11  1  0  0  0
 11 12  1  0  0  0
 12 28  1  0  0  0
 28 29  1  0  0  0
 29 30  1  0  0  0
 30 31  1  0  0  0
 31 32  1  0  0  0
 32 33  1  0  0  0
 33 34  1  0  0  0
 34 35  1  0  0  0
 32 36  1  0  0  0
 10 13  1  0  0  0
 13 14  2  0  0  0
 13 15  1  0  0  0
 15 18  1  0  0  0
 18 19  2  0  0  0
 19 20  1  0  0  0
 20 21  2  0  0  0
 21 22  1  0  0  0
 22 23  2  0  0  0
 23 24  1  0  0  0
 24 25  2  0  0  0
 25 26  1  0  0  0
 26 27  2  0  0  0
 15 16  1  0  0  0
 16 17  1  0  0  0
 17 38  1  0  0  0
 38 39  1  0  0  0
 39 41  1  0  0  0
 41 42  2  0  0  0
 42 43  1  0  0  0
 43 44  2  0  0  0
 44 45  1  0  0  0
 45 46  2  0  0  0
 12  2  1  0  0  0
 36 30  1  0  0  0
 27 18  1  0  0  0
 46 41  1  0  0  0
  9  3  1  0  0  0
 17 10  1  0  0  0
 35 32  1  0  0  0
 27 22  1  0  0  0
 30 37  1  0  0  0
 39 40  1  0  0  0
M  CHG 1  30   1
M  END
> <minimizedAffinity>
-8.55072

> <CNNscore>
0.1475393027

> <CNNaffinity>
6.6994910240

> <CNN_VS>
0.9884382486

> <CNNaffinity_variance>
0.1051751599

$$$$
