


 46 53  0  0  0  0  0  0  0  0999 V2000
    6.9215   -6.3929   24.9023 O   0  0  0  0  0  0  0  0  0  0  0  0
    6.9488   -5.1107   24.1243 C   0  0  0  0  0  0  0  0  0  0  0  0
    8.0049   -4.0838   24.4077 C   0  0  0  0  0  0  0  0  0  0  0  0
    9.0336   -4.3392   25.4691 C   0  0  0  0  0  0  0  0  0  0  0  0
   10.0896   -3.3123   25.7525 C   0  0  0  0  0  0  0  0  0  0  0  0
   10.1169   -2.0302   24.9745 C   0  0  0  0  0  0  0  0  0  0  0  0
   11.2816   -1.2486   25.5064 Cl  0  0  0  0  0  0  0  0  0  0  0  0
    9.0882   -1.7748   23.9131 C   0  0  0  0  0  0  0  0  0  0  0  0
    8.0322   -2.8017   23.6298 C   0  0  0  0  0  0  0  0  0  0  0  0
    7.0034   -2.5463   22.5684 C   0  0  0  0  0  0  0  0  0  0  0  0
    5.9474   -3.5732   22.2850 C   0  0  0  0  0  0  0  0  0  0  0  0
    5.9201   -4.8554   23.0630 N   0  0  0  0  0  0  0  0  0  0  0  0
    6.0457   -2.1530   21.4830 C   0  0  0  0  0  0  0  0  0  0  0  0
    4.8925   -2.9729   20.9850 O   0  0  0  0  0  0  0  0  0  0  0  0
    6.4436   -0.7959   20.9830 N   0  0  0  0  0  0  0  0  0  0  0  0
    7.6472   -0.3505   21.7594 C   0  0  0  0  0  0  0  0  0  0  0  0
    7.9932   -1.4323   22.7392 C   0  0  0  0  0  0  0  0  0  0  0  0
    5.7582   -0.0205   19.8972 C   0  0  0  0  0  0  0  0  0  0  0  0
    6.2601   -0.1019   18.4861 C   0  0  0  0  0  0  0  0  0  0  0  0
    5.5747    0.6736   17.4004 N   0  0  0  0  0  0  0  0  0  0  0  0
    4.3873    1.5304   17.7258 C   0  0  0  0  0  0  0  0  0  0  0  0
    3.8854    1.6118   19.1370 C   0  0  0  0  0  0  0  0  0  0  0  0
    2.6979    2.4687   19.4625 C   0  0  0  0  0  0  0  0  0  0  0  0
    2.1960    2.5500   20.8737 C   0  0  0  0  0  0  0  0  0  0  0  0
    2.8814    1.7745   21.9593 C   0  0  0  0  0  0  0  0  0  0  0  0
    4.0688    0.9177   21.6339 C   0  0  0  0  0  0  0  0  0  0  0  0
    4.5708    0.8363   20.2228 C   0  0  0  0  0  0  0  0  0  0  0  0
    4.8639   -5.8823   22.7796 C   0  0  0  0  0  0  0  0  0  0  0  0
    3.8499   -6.2249   23.8303 C   0  0  0  0  0  0  0  0  0  0  0  0
    2.5173   -6.7865   23.4317 N   0  0  0  0  0  0  0  0  0  0  0  0
    1.7826   -8.0664   23.7000 C   0  0  0  0  0  0  0  0  0  0  0  0
    0.6328   -7.5808   22.8680 C   0  0  0  0  0  0  0  0  0  0  0  0
   -0.1019   -8.8607   23.1364 C   0  0  0  0  0  0  0  0  0  0  0  0
   -1.2517   -8.3751   22.3044 O   0  0  0  0  0  0  0  0  0  0  0  0
   -0.5169   -7.0952   22.0361 C   0  0  0  0  0  0  0  0  0  0  0  0
    1.3675   -6.3009   22.5997 C   0  0  0  0  0  0  0  0  0  0  0  0
    1.6112   -7.1684   23.1607 H   0  0  0  0  0  0  0  0  0  0  0  0
    9.1295   -1.4049   23.7180 C   0  0  0  0  0  0  0  0  0  0  0  0
   10.4733   -0.8913   23.2931 N   0  0  0  0  0  0  0  0  0  0  0  0
   11.2102   -1.5219   23.1239 H   0  0  0  0  0  0  0  0  0  0  0  0
   10.6944    0.5828   23.1261 C   0  0  0  0  0  0  0  0  0  0  0  0
   12.0713    1.1077   22.8457 N   0  0  0  0  0  0  0  0  0  0  0  0
   12.2924    2.5818   22.6787 C   0  0  0  0  0  0  0  0  0  0  0  0
   11.1366    3.5312   22.7920 C   0  0  0  0  0  0  0  0  0  0  0  0
    9.7597    3.0063   23.0724 C   0  0  0  0  0  0  0  0  0  0  0  0
    9.5386    1.5322   23.2394 N   0  0  0  0  0  0  0  0  0  0  0  0
  1  2  2  0  0  0
  2  3  1  0  0  0
  3  4  2  0  0  0
  4  5  1  0  0  0
  5  6  2  0  0  0
  6  7  1  0  0  0
  6  8  1  0  0  0
  8  9  2  0  0  0
  9 10  1  0  0  0
 10 11  1  0  0  0
 11 12  1  0  0  0
 12 28  1  0  0  0
 28 29  1  0  0  0
 29 30  1  0  0  0
 30 31  1  0  0  0
 31 32  1  0  0  0
 32 33  1  0  0  0
 33 34  1  0  0  0
 34 35  1  0  0  0
 32 36  1  0  0  0
 10 13  1  0  0  0
 13 14  2  0  0  0
 13 15  1  0  0  0
 15 18  1  0  0  0
 18 19  2  0  0  0
 19 20  1  0  0  0
 20 21  2  0  0  0
 21 22  1  0  0  0
 22 23  2  0  0  0
 23 24  1  0  0  0
 24 25  2  0  0  0
 25 26  1  0  0  0
 26 27  2  0  0  0
 15 16  1  0  0  0
 16 17  1  0  0  0
 17 38  1  0  0  0
 38 39  1  0  0  0
 39 41  1  0  0  0
 41 42  2  0  0  0
 42 43  1  0  0  0
 43 44  2  0  0  0
 44 45  1  0  0  0
 45 46  2  0  0  0
 12  2  1  0  0  0
 36 30  1  0  0  0
 27 18  1  0  0  0
 46 41  1  0  0  0
  9  3  1  0  0  0
 17 10  1  0  0  0
 35 32  1  0  0  0
 27 22  1  0  0  0
 30 37  1  0  0  0
 39 40  1  0  0  0
M  CHG 1  30   1
M  END
> <minimizedAffinity>
-8.87557

> <CNNscore>
0.5344737768

> <CNNaffinity>
7.2170081139

> <CNN_VS>
3.8573014736

> <CNNaffinity_variance>
0.1014187187

$$$$



 46 53  0  0  0  0  0  0  0  0999 V2000
    7.9312    4.3890   23.7778 O   0  0  0  0  0  0  0  0  0  0  0  0
    7.8755    2.8944   23.6633 C   0  0  0  0  0  0  0  0  0  0  0  0
    9.1228    2.1184   23.3599 C   0  0  0  0  0  0  0  0  0  0  0  0
   10.4259    2.8370   23.1709 C   0  0  0  0  0  0  0  0  0  0  0  0
   11.6731    2.0610   22.8675 C   0  0  0  0  0  0  0  0  0  0  0  0
   11.6173    0.5664   22.7531 C   0  0  0  0  0  0  0  0  0  0  0  0
   13.0175    0.1226   22.4482 Cl  0  0  0  0  0  0  0  0  0  0  0  0
   10.3143   -0.1522   22.9421 C   0  0  0  0  0  0  0  0  0  0  0  0
    9.0671    0.6238   23.2455 C   0  0  0  0  0  0  0  0  0  0  0  0
    7.7640   -0.0947   23.4345 C   0  0  0  0  0  0  0  0  0  0  0  0
    6.5167    0.6813   23.7379 C   0  0  0  0  0  0  0  0  0  0  0  0
    6.5725    2.1759   23.8523 N   0  0  0  0  0  0  0  0  0  0  0  0
    6.5400   -0.9464   23.5972 C   0  0  0  0  0  0  0  0  0  0  0  0
    5.1568   -0.4531   23.9030 O   0  0  0  0  0  0  0  0  0  0  0  0
    6.9419   -2.3781   23.4005 N   0  0  0  0  0  0  0  0  0  0  0  0
    8.4144   -2.4113   23.1162 C   0  0  0  0  0  0  0  0  0  0  0  0
    8.9224   -1.0001   23.1372 C   0  0  0  0  0  0  0  0  0  0  0  0
    6.0313   -3.5678   23.4751 C   0  0  0  0  0  0  0  0  0  0  0  0
    5.6200   -4.2773   22.2192 C   0  0  0  0  0  0  0  0  0  0  0  0
    4.7094   -5.4669   22.2937 N   0  0  0  0  0  0  0  0  0  0  0  0
    4.2101   -5.9470   23.6242 C   0  0  0  0  0  0  0  0  0  0  0  0
    4.6215   -5.2374   24.8802 C   0  0  0  0  0  0  0  0  0  0  0  0
    4.1222   -5.7176   26.2107 C   0  0  0  0  0  0  0  0  0  0  0  0
    4.5335   -5.0080   27.4666 C   0  0  0  0  0  0  0  0  0  0  0  0
    5.4441   -3.8184   27.3920 C   0  0  0  0  0  0  0  0  0  0  0  0
    5.9434   -3.3383   26.0615 C   0  0  0  0  0  0  0  0  0  0  0  0
    5.5321   -4.0478   24.8056 C   0  0  0  0  0  0  0  0  0  0  0  0
    5.3251    2.9519   24.1557 C   0  0  0  0  0  0  0  0  0  0  0  0
    4.4742    3.4720   23.0353 C   0  0  0  0  0  0  0  0  0  0  0  0
    4.7668    4.8138   22.4320 N   0  0  0  0  0  0  0  0  0  0  0  0
    4.1653    6.1830   22.5484 C   0  0  0  0  0  0  0  0  0  0  0  0
    5.1805    6.7114   21.5788 C   0  0  0  0  0  0  0  0  0  0  0  0
    4.5790    8.0805   21.6953 C   0  0  0  0  0  0  0  0  0  0  0  0
    5.5942    8.6090   20.7256 O   0  0  0  0  0  0  0  0  0  0  0  0
    6.1956    7.2398   20.6093 C   0  0  0  0  0  0  0  0  0  0  0  0
    5.7820    5.3423   21.4624 C   0  0  0  0  0  0  0  0  0  0  0  0
    4.9657    5.7262   22.0218 H   0  0  0  0  0  0  0  0  0  0  0  0
   10.3400   -0.5698   22.9022 C   0  0  0  0  0  0  0  0  0  0  0  0
   11.4472   -1.5810   22.9416 N   0  0  0  0  0  0  0  0  0  0  0  0
   11.9308   -1.8139   22.1163 H   0  0  0  0  0  0  0  0  0  0  0  0
   11.8177   -2.2375   24.2383 C   0  0  0  0  0  0  0  0  0  0  0  0
   13.1197   -1.9025   24.9035 N   0  0  0  0  0  0  0  0  0  0  0  0
   13.4901   -2.5590   26.2003 C   0  0  0  0  0  0  0  0  0  0  0  0
   12.5586   -3.5506   26.8320 C   0  0  0  0  0  0  0  0  0  0  0  0
   11.2566   -3.8856   26.1668 C   0  0  0  0  0  0  0  0  0  0  0  0
   10.8861   -3.2291   24.8701 N   0  0  0  0  0  0  0  0  0  0  0  0
  1  2  2  0  0  0
  2  3  1  0  0  0
  3  4  2  0  0  0
  4  5  1  0  0  0
  5  6  2  0  0  0
  6  7  1  0  0  0
  6  8  1  0  0  0
  8  9  2  0  0  0
  9 10  1  0  0  0
 10 11  1  0  0  0
 11 12  1  0  0  0
 12 28  1  0  0  0
 28 29  1  0  0  0
 29 30  1  0  0  0
 30 31  1  0  0  0
 31 32  1  0  0  0
 32 33  1  0  0  0
 33 34  1  0  0  0
 34 35  1  0  0  0
 32 36  1  0  0  0
 10 13  1  0  0  0
 13 14  2  0  0  0
 13 15  1  0  0  0
 15 18  1  0  0  0
 18 19  2  0  0  0
 19 20  1  0  0  0
 20 21  2  0  0  0
 21 22  1  0  0  0
 22 23  2  0  0  0
 23 24  1  0  0  0
 24 25  2  0  0  0
 25 26  1  0  0  0
 26 27  2  0  0  0
 15 16  1  0  0  0
 16 17  1  0  0  0
 17 38  1  0  0  0
 38 39  1  0  0  0
 39 41  1  0  0  0
 41 42  2  0  0  0
 42 43  1  0  0  0
 43 44  2  0  0  0
 44 45  1  0  0  0
 45 46  2  0  0  0
 12  2  1  0  0  0
 36 30  1  0  0  0
 27 18  1  0  0  0
 46 41  1  0  0  0
  9  3  1  0  0  0
 17 10  1  0  0  0
 35 32  1  0  0  0
 27 22  1  0  0  0
 30 37  1  0  0  0
 39 40  1  0  0  0
M  CHG 1  30   1
M  END
> <minimizedAffinity>
-8.65672

> <CNNscore>
0.5180736184

> <CNNaffinity>
7.2256326675

> <CNN_VS>
3.7434096336

> <CNNaffinity_variance>
0.1185853109

$$$$



 46 53  0  0  0  0  0  0  0  0999 V2000
    7.4224   -6.6036   24.3934 O   0  0  0  0  0  0  0  0  0  0  0  0
    7.2610   -5.2237   23.8278 C   0  0  0  0  0  0  0  0  0  0  0  0
    8.1682   -4.1175   24.2789 C   0  0  0  0  0  0  0  0  0  0  0  0
    9.2366   -4.3911   25.2955 C   0  0  0  0  0  0  0  0  0  0  0  0
   10.1436   -3.2849   25.7465 C   0  0  0  0  0  0  0  0  0  0  0  0
    9.9822   -1.9050   25.1809 C   0  0  0  0  0  0  0  0  0  0  0  0
   11.0342   -1.0626   25.8397 Cl  0  0  0  0  0  0  0  0  0  0  0  0
    8.9138   -1.6314   24.1643 C   0  0  0  0  0  0  0  0  0  0  0  0
    8.0068   -2.7376   23.7133 C   0  0  0  0  0  0  0  0  0  0  0  0
    6.9383   -2.4640   22.6966 C   0  0  0  0  0  0  0  0  0  0  0  0
    6.0313   -3.5702   22.2456 C   0  0  0  0  0  0  0  0  0  0  0  0
    6.1926   -4.9501   22.8112 N   0  0  0  0  0  0  0  0  0  0  0  0
    5.9208   -2.0418   21.6786 C   0  0  0  0  0  0  0  0  0  0  0  0
    4.8859   -2.9254   21.0474 O   0  0  0  0  0  0  0  0  0  0  0  0
    6.1197   -0.5809   21.4025 N   0  0  0  0  0  0  0  0  0  0  0  0
    7.2603   -0.1002   22.2499 C   0  0  0  0  0  0  0  0  0  0  0  0
    7.7662   -1.2640   23.0496 C   0  0  0  0  0  0  0  0  0  0  0  0
    5.3188    0.2528   20.4468 C   0  0  0  0  0  0  0  0  0  0  0  0
    5.6667    0.2640   18.9879 C   0  0  0  0  0  0  0  0  0  0  0  0
    4.8657    1.0978   18.0322 N   0  0  0  0  0  0  0  0  0  0  0  0
    3.7168    1.9203   18.5356 C   0  0  0  0  0  0  0  0  0  0  0  0
    3.3689    1.9091   19.9946 C   0  0  0  0  0  0  0  0  0  0  0  0
    2.2199    2.7317   20.4980 C   0  0  0  0  0  0  0  0  0  0  0  0
    1.8720    2.7204   21.9571 C   0  0  0  0  0  0  0  0  0  0  0  0
    2.6730    1.8867   22.9127 C   0  0  0  0  0  0  0  0  0  0  0  0
    3.8219    1.0642   22.4093 C   0  0  0  0  0  0  0  0  0  0  0  0
    4.1699    1.0754   20.9503 C   0  0  0  0  0  0  0  0  0  0  0  0
    5.2855   -6.0564   22.3601 C   0  0  0  0  0  0  0  0  0  0  0  0
    4.0173   -6.3389   23.1095 C   0  0  0  0  0  0  0  0  0  0  0  0
    4.0521   -6.5329   24.5964 N   0  0  0  0  0  0  0  0  0  0  0  0
    4.2883   -7.7000   25.5086 C   0  0  0  0  0  0  0  0  0  0  0  0
    4.1014   -6.8072   26.6994 C   0  0  0  0  0  0  0  0  0  0  0  0
    4.3376   -7.9744   27.6115 C   0  0  0  0  0  0  0  0  0  0  0  0
    4.1507   -7.0817   28.8023 O   0  0  0  0  0  0  0  0  0  0  0  0
    3.9145   -5.9146   27.8902 C   0  0  0  0  0  0  0  0  0  0  0  0
    3.8652   -5.6402   25.7873 C   0  0  0  0  0  0  0  0  0  0  0  0
    4.0758   -6.6648   25.6076 H   0  0  0  0  0  0  0  0  0  0  0  0
    8.9008   -1.2332   24.0303 C   0  0  0  0  0  0  0  0  0  0  0  0
   10.2514   -0.7429   23.5997 N   0  0  0  0  0  0  0  0  0  0  0  0
   10.9983   -1.3773   23.5054 H   0  0  0  0  0  0  0  0  0  0  0  0
   10.4641    0.7139   23.3127 C   0  0  0  0  0  0  0  0  0  0  0  0
   11.8179    1.2061   22.8947 N   0  0  0  0  0  0  0  0  0  0  0  0
   12.0306    2.6630   22.6077 C   0  0  0  0  0  0  0  0  0  0  0  0
   10.8894    3.6276   22.7388 C   0  0  0  0  0  0  0  0  0  0  0  0
    9.5356    3.1354   23.1568 C   0  0  0  0  0  0  0  0  0  0  0  0
    9.3229    1.6786   23.4438 N   0  0  0  0  0  0  0  0  0  0  0  0
  1  2  2  0  0  0
  2  3  1  0  0  0
  3  4  2  0  0  0
  4  5  1  0  0  0
  5  6  2  0  0  0
  6  7  1  0  0  0
  6  8  1  0  0  0
  8  9  2  0  0  0
  9 10  1  0  0  0
 10 11  1  0  0  0
 11 12  1  0  0  0
 12 28  1  0  0  0
 28 29  1  0  0  0
 29 30  1  0  0  0
 30 31  1  0  0  0
 31 32  1  0  0  0
 32 33  1  0  0  0
 33 34  1  0  0  0
 34 35  1  0  0  0
 32 36  1  0  0  0
 10 13  1  0  0  0
 13 14  2  0  0  0
 13 15  1  0  0  0
 15 18  1  0  0  0
 18 19  2  0  0  0
 19 20  1  0  0  0
 20 21  2  0  0  0
 21 22  1  0  0  0
 22 23  2  0  0  0
 23 24  1  0  0  0
 24 25  2  0  0  0
 25 26  1  0  0  0
 26 27  2  0  0  0
 15 16  1  0  0  0
 16 17  1  0  0  0
 17 38  1  0  0  0
 38 39  1  0  0  0
 39 41  1  0  0  0
 41 42  2  0  0  0
 42 43  1  0  0  0
 43 44  2  0  0  0
 44 45  1  0  0  0
 45 46  2  0  0  0
 12  2  1  0  0  0
 36 30  1  0  0  0
 27 18  1  0  0  0
 46 41  1  0  0  0
  9  3  1  0  0  0
 17 10  1  0  0  0
 35 32  1  0  0  0
 27 22  1  0  0  0
 30 37  1  0  0  0
 39 40  1  0  0  0
M  CHG 1  30   1
M  END
> <minimizedAffinity>
-8.66229

> <CNNscore>
0.4425883591

> <CNNaffinity>
7.0727539062

> <CNN_VS>
3.1303186417

> <CNNaffinity_variance>
0.1834495217

$$$$



 46 53  0  0  0  0  0  0  0  0999 V2000
    7.7827   -3.2418   27.6507 O   0  0  0  0  0  0  0  0  0  0  0  0
    7.8221   -2.6682   26.2653 C   0  0  0  0  0  0  0  0  0  0  0  0
    9.1395   -2.4406   25.5850 C   0  0  0  0  0  0  0  0  0  0  0  0
   10.4174   -2.7866   26.2901 C   0  0  0  0  0  0  0  0  0  0  0  0
   11.7347   -2.5589   25.6099 C   0  0  0  0  0  0  0  0  0  0  0  0
   11.7742   -1.9853   24.2244 C   0  0  0  0  0  0  0  0  0  0  0  0
   13.2255   -1.8929   23.8564 Cl  0  0  0  0  0  0  0  0  0  0  0  0
   10.4963   -1.6394   23.5193 C   0  0  0  0  0  0  0  0  0  0  0  0
    9.1790   -1.8670   24.1996 C   0  0  0  0  0  0  0  0  0  0  0  0
    7.9010   -1.5210   23.4944 C   0  0  0  0  0  0  0  0  0  0  0  0
    6.5837   -1.7486   24.1747 C   0  0  0  0  0  0  0  0  0  0  0  0
    6.5442   -2.3222   25.5601 N   0  0  0  0  0  0  0  0  0  0  0  0
    6.7120   -1.1286   22.6684 C   0  0  0  0  0  0  0  0  0  0  0  0
    5.2748   -1.2408   23.0829 O   0  0  0  0  0  0  0  0  0  0  0  0
    7.2125   -0.6041   21.3552 N   0  0  0  0  0  0  0  0  0  0  0  0
    8.7109   -0.6725   21.3696 C   0  0  0  0  0  0  0  0  0  0  0  0
    9.1364   -1.2391   22.6917 C   0  0  0  0  0  0  0  0  0  0  0  0
    6.3637   -0.0999   20.2260 C   0  0  0  0  0  0  0  0  0  0  0  0
    6.4171   -0.7756   18.8879 C   0  0  0  0  0  0  0  0  0  0  0  0
    5.5683   -0.2714   17.7587 N   0  0  0  0  0  0  0  0  0  0  0  0
    4.6660    0.9086   17.9675 C   0  0  0  0  0  0  0  0  0  0  0  0
    4.6126    1.5843   19.3057 C   0  0  0  0  0  0  0  0  0  0  0  0
    3.7103    2.7643   19.5145 C   0  0  0  0  0  0  0  0  0  0  0  0
    3.6569    3.4399   20.8527 C   0  0  0  0  0  0  0  0  0  0  0  0
    4.5058    2.9357   21.9819 C   0  0  0  0  0  0  0  0  0  0  0  0
    5.4080    1.7558   21.7730 C   0  0  0  0  0  0  0  0  0  0  0  0
    5.4614    1.0801   20.4349 C   0  0  0  0  0  0  0  0  0  0  0  0
    5.2268   -2.5499   26.2404 C   0  0  0  0  0  0  0  0  0  0  0  0
    4.3946   -3.7454   25.8825 C   0  0  0  0  0  0  0  0  0  0  0  0
    4.1509   -4.8210   26.8992 N   0  0  0  0  0  0  0  0  0  0  0  0
    4.2691   -6.3163   26.9105 C   0  0  0  0  0  0  0  0  0  0  0  0
    3.8061   -6.3420   28.3371 C   0  0  0  0  0  0  0  0  0  0  0  0
    3.9243   -7.8374   28.3483 C   0  0  0  0  0  0  0  0  0  0  0  0
    3.4614   -7.8632   29.7749 O   0  0  0  0  0  0  0  0  0  0  0  0
    3.3432   -6.3679   29.7636 C   0  0  0  0  0  0  0  0  0  0  0  0
    3.6879   -4.8468   28.3258 C   0  0  0  0  0  0  0  0  0  0  0  0
    3.9851   -5.5524   27.5906 H   0  0  0  0  0  0  0  0  0  0  0  0
   10.5492   -1.4813   23.1334 C   0  0  0  0  0  0  0  0  0  0  0  0
   11.3296   -0.3804   23.7884 N   0  0  0  0  0  0  0  0  0  0  0  0
   11.9542   -0.5880   24.5205 H   0  0  0  0  0  0  0  0  0  0  0  0
   11.1584    1.0368   23.3279 C   0  0  0  0  0  0  0  0  0  0  0  0
    9.8293    1.7169   23.4721 N   0  0  0  0  0  0  0  0  0  0  0  0
    9.6582    3.1342   23.0116 C   0  0  0  0  0  0  0  0  0  0  0  0
   10.8162    3.8713   22.4070 C   0  0  0  0  0  0  0  0  0  0  0  0
   12.1453    3.1912   22.2628 C   0  0  0  0  0  0  0  0  0  0  0  0
   12.3165    1.7740   22.7233 N   0  0  0  0  0  0  0  0  0  0  0  0
  1  2  2  0  0  0
  2  3  1  0  0  0
  3  4  2  0  0  0
  4  5  1  0  0  0
  5  6  2  0  0  0
  6  7  1  0  0  0
  6  8  1  0  0  0
  8  9  2  0  0  0
  9 10  1  0  0  0
 10 11  1  0  0  0
 11 12  1  0  0  0
 12 28  1  0  0  0
 28 29  1  0  0  0
 29 30  1  0  0  0
 30 31  1  0  0  0
 31 32  1  0  0  0
 32 33  1  0  0  0
 33 34  1  0  0  0
 34 35  1  0  0  0
 32 36  1  0  0  0
 10 13  1  0  0  0
 13 14  2  0  0  0
 13 15  1  0  0  0
 15 18  1  0  0  0
 18 19  2  0  0  0
 19 20  1  0  0  0
 20 21  2  0  0  0
 21 22  1  0  0  0
 22 23  2  0  0  0
 23 24  1  0  0  0
 24 25  2  0  0  0
 25 26  1  0  0  0
 26 27  2  0  0  0
 15 16  1  0  0  0
 16 17  1  0  0  0
 17 38  1  0  0  0
 38 39  1  0  0  0
 39 41  1  0  0  0
 41 42  2  0  0  0
 42 43  1  0  0  0
 43 44  2  0  0  0
 44 45  1  0  0  0
 45 46  2  0  0  0
 12  2  1  0  0  0
 36 30  1  0  0  0
 27 18  1  0  0  0
 46 41  1  0  0  0
  9  3  1  0  0  0
 17 10  1  0  0  0
 35 32  1  0  0  0
 27 22  1  0  0  0
 30 37  1  0  0  0
 39 40  1  0  0  0
M  CHG 1  30   1
M  END
> <minimizedAffinity>
-9.03449

> <CNNscore>
0.4403637648

> <CNNaffinity>
7.0338644981

> <CNN_VS>
3.0974590778

> <CNNaffinity_variance>
0.2248551846

$$$$



 46 53  0  0  0  0  0  0  0  0999 V2000
    7.5875   -3.1841   27.4983 O   0  0  0  0  0  0  0  0  0  0  0  0
    7.6464   -2.6112   26.1133 C   0  0  0  0  0  0  0  0  0  0  0  0
    8.9719   -2.4098   25.4406 C   0  0  0  0  0  0  0  0  0  0  0  0
   10.2386   -2.7813   26.1530 C   0  0  0  0  0  0  0  0  0  0  0  0
   11.5641   -2.5799   25.4803 C   0  0  0  0  0  0  0  0  0  0  0  0
   11.6229   -2.0070   24.0953 C   0  0  0  0  0  0  0  0  0  0  0  0
   13.0778   -1.9435   23.7357 Cl  0  0  0  0  0  0  0  0  0  0  0  0
   10.3563   -1.6354   23.3830 C   0  0  0  0  0  0  0  0  0  0  0  0
    9.0308   -1.8368   24.0556 C   0  0  0  0  0  0  0  0  0  0  0  0
    7.7640   -1.4652   23.3433 C   0  0  0  0  0  0  0  0  0  0  0  0
    6.4386   -1.6666   24.0159 C   0  0  0  0  0  0  0  0  0  0  0  0
    6.3797   -2.2396   25.4009 N   0  0  0  0  0  0  0  0  0  0  0  0
    6.5879   -1.0489   22.5106 C   0  0  0  0  0  0  0  0  0  0  0  0
    5.1463   -1.1325   22.9168 O   0  0  0  0  0  0  0  0  0  0  0  0
    7.1063   -0.5344   21.2004 N   0  0  0  0  0  0  0  0  0  0  0  0
    8.6029   -0.6326   21.2234 C   0  0  0  0  0  0  0  0  0  0  0  0
    9.0094   -1.2079   22.5477 C   0  0  0  0  0  0  0  0  0  0  0  0
    6.2742   -0.0131   20.0665 C   0  0  0  0  0  0  0  0  0  0  0  0
    6.4000   -0.6227   18.7018 C   0  0  0  0  0  0  0  0  0  0  0  0
    5.5679   -0.1014   17.5679 N   0  0  0  0  0  0  0  0  0  0  0  0
    4.6100    1.0295   17.7987 C   0  0  0  0  0  0  0  0  0  0  0  0
    4.4841    1.6392   19.1634 C   0  0  0  0  0  0  0  0  0  0  0  0
    3.5261    2.7702   19.3942 C   0  0  0  0  0  0  0  0  0  0  0  0
    3.4004    3.3798   20.7590 C   0  0  0  0  0  0  0  0  0  0  0  0
    4.2325    2.8585   21.8928 C   0  0  0  0  0  0  0  0  0  0  0  0
    5.1904    1.7275   21.6620 C   0  0  0  0  0  0  0  0  0  0  0  0
    5.3162    1.1179   20.2974 C   0  0  0  0  0  0  0  0  0  0  0  0
    5.0541   -2.4410   26.0736 C   0  0  0  0  0  0  0  0  0  0  0  0
    4.3532   -3.7630   25.9690 C   0  0  0  0  0  0  0  0  0  0  0  0
    5.0682   -4.9471   25.3889 N   0  0  0  0  0  0  0  0  0  0  0  0
    4.9446   -6.4352   25.5315 C   0  0  0  0  0  0  0  0  0  0  0  0
    6.0795   -6.6217   24.5685 C   0  0  0  0  0  0  0  0  0  0  0  0
    5.9557   -8.1098   24.7111 C   0  0  0  0  0  0  0  0  0  0  0  0
    7.0906   -8.2965   23.7481 O   0  0  0  0  0  0  0  0  0  0  0  0
    7.2142   -6.8084   23.6055 C   0  0  0  0  0  0  0  0  0  0  0  0
    6.2031   -5.1337   24.4259 C   0  0  0  0  0  0  0  0  0  0  0  0
    5.5544   -5.7523   24.9944 H   0  0  0  0  0  0  0  0  0  0  0  0
   10.4146   -1.4784   22.9975 C   0  0  0  0  0  0  0  0  0  0  0  0
   11.1861   -0.4184   23.7262 N   0  0  0  0  0  0  0  0  0  0  0  0
   11.7567   -0.6625   24.4904 H   0  0  0  0  0  0  0  0  0  0  0  0
   11.0884    1.0136   23.2906 C   0  0  0  0  0  0  0  0  0  0  0  0
   12.2830    1.7005   22.6981 N   0  0  0  0  0  0  0  0  0  0  0  0
   12.1853    3.1325   22.2625 C   0  0  0  0  0  0  0  0  0  0  0  0
   10.8929    3.8776   22.4193 C   0  0  0  0  0  0  0  0  0  0  0  0
    9.6983    3.1907   23.0118 C   0  0  0  0  0  0  0  0  0  0  0  0
    9.7960    1.7588   23.4474 N   0  0  0  0  0  0  0  0  0  0  0  0
  1  2  2  0  0  0
  2  3  1  0  0  0
  3  4  2  0  0  0
  4  5  1  0  0  0
  5  6  2  0  0  0
  6  7  1  0  0  0
  6  8  1  0  0  0
  8  9  2  0  0  0
  9 10  1  0  0  0
 10 11  1  0  0  0
 11 12  1  0  0  0
 12 28  1  0  0  0
 28 29  1  0  0  0
 29 30  1  0  0  0
 30 31  1  0  0  0
 31 32  1  0  0  0
 32 33  1  0  0  0
 33 34  1  0  0  0
 34 35  1  0  0  0
 32 36  1  0  0  0
 10 13  1  0  0  0
 13 14  2  0  0  0
 13 15  1  0  0  0
 15 18  1  0  0  0
 18 19  2  0  0  0
 19 20  1  0  0  0
 20 21  2  0  0  0
 21 22  1  0  0  0
 22 23  2  0  0  0
 23 24  1  0  0  0
 24 25  2  0  0  0
 25 26  1  0  0  0
 26 27  2  0  0  0
 15 16  1  0  0  0
 16 17  1  0  0  0
 17 38  1  0  0  0
 38 39  1  0  0  0
 39 41  1  0  0  0
 41 42  2  0  0  0
 42 43  1  0  0  0
 43 44  2  0  0  0
 44 45  1  0  0  0
 45 46  2  0  0  0
 12  2  1  0  0  0
 36 30  1  0  0  0
 27 18  1  0  0  0
 46 41  1  0  0  0
  9  3  1  0  0  0
 17 10  1  0  0  0
 35 32  1  0  0  0
 27 22  1  0  0  0
 30 37  1  0  0  0
 39 40  1  0  0  0
M  CHG 1  30   1
M  END
> <minimizedAffinity>
-9.64266

> <CNNscore>
0.4374367595

> <CNNaffinity>
7.2026205063

> <CNN_VS>
3.1506910324

> <CNNaffinity_variance>
0.4070239067

$$$$



 46 53  0  0  0  0  0  0  0  0999 V2000
    7.8924   -3.5339   27.5250 O   0  0  0  0  0  0  0  0  0  0  0  0
    7.9140   -2.8963   26.1674 C   0  0  0  0  0  0  0  0  0  0  0  0
    9.2238   -2.5859   25.5053 C   0  0  0  0  0  0  0  0  0  0  0  0
   10.5119   -2.9131   26.2009 C   0  0  0  0  0  0  0  0  0  0  0  0
   11.8216   -2.6028   25.5389 C   0  0  0  0  0  0  0  0  0  0  0  0
   11.8432   -1.9652   24.1813 C   0  0  0  0  0  0  0  0  0  0  0  0
   13.2910   -1.7988   23.8257 Cl  0  0  0  0  0  0  0  0  0  0  0  0
   10.5552   -1.6380   23.4857 C   0  0  0  0  0  0  0  0  0  0  0  0
    9.2455   -1.9483   24.1478 C   0  0  0  0  0  0  0  0  0  0  0  0
    7.9573   -1.6211   23.4522 C   0  0  0  0  0  0  0  0  0  0  0  0
    6.6476   -1.9315   24.1142 C   0  0  0  0  0  0  0  0  0  0  0  0
    6.6260   -2.5691   25.4718 N   0  0  0  0  0  0  0  0  0  0  0  0
    6.7567   -1.2385   22.6386 C   0  0  0  0  0  0  0  0  0  0  0  0
    5.3236   -1.4263   23.0396 O   0  0  0  0  0  0  0  0  0  0  0  0
    7.2407   -0.6351   21.3534 N   0  0  0  0  0  0  0  0  0  0  0  0
    8.7406   -0.6449   21.3727 C   0  0  0  0  0  0  0  0  0  0  0  0
    9.1834   -1.2542   22.6699 C   0  0  0  0  0  0  0  0  0  0  0  0
    6.3766   -0.1136   20.2437 C   0  0  0  0  0  0  0  0  0  0  0  0
    6.4043   -0.7747   18.8977 C   0  0  0  0  0  0  0  0  0  0  0  0
    5.5402   -0.2532   17.7880 N   0  0  0  0  0  0  0  0  0  0  0  0
    4.6485    0.9294   18.0245 C   0  0  0  0  0  0  0  0  0  0  0  0
    4.6208    1.5906   19.3707 C   0  0  0  0  0  0  0  0  0  0  0  0
    3.7289    2.7734   19.6071 C   0  0  0  0  0  0  0  0  0  0  0  0
    3.7013    3.4344   20.9533 C   0  0  0  0  0  0  0  0  0  0  0  0
    4.5654    2.9129   22.0629 C   0  0  0  0  0  0  0  0  0  0  0  0
    5.4572    1.7302   21.8264 C   0  0  0  0  0  0  0  0  0  0  0  0
    5.4849    1.0691   20.4803 C   0  0  0  0  0  0  0  0  0  0  0  0
    5.3162   -2.8794   26.1339 C   0  0  0  0  0  0  0  0  0  0  0  0
    4.5344   -1.7858   26.7992 C   0  0  0  0  0  0  0  0  0  0  0  0
    3.0367   -1.7783   26.7177 N   0  0  0  0  0  0  0  0  0  0  0  0
    1.9969   -0.7451   26.3994 C   0  0  0  0  0  0  0  0  0  0  0  0
    0.9185   -1.7678   26.6025 C   0  0  0  0  0  0  0  0  0  0  0  0
   -0.1212   -0.7345   26.2842 C   0  0  0  0  0  0  0  0  0  0  0  0
   -1.1997   -1.7571   26.4873 O   0  0  0  0  0  0  0  0  0  0  0  0
   -0.1599   -2.7903   26.8057 C   0  0  0  0  0  0  0  0  0  0  0  0
    1.9582   -2.8009   26.9209 C   0  0  0  0  0  0  0  0  0  0  0  0
    2.0182   -1.7732   26.6623 H   0  0  0  0  0  0  0  0  0  0  0  0
   10.6032   -1.4605   23.1078 C   0  0  0  0  0  0  0  0  0  0  0  0
   11.3458   -0.3513   23.7921 N   0  0  0  0  0  0  0  0  0  0  0  0
   11.9701   -0.5560   24.5253 H   0  0  0  0  0  0  0  0  0  0  0  0
   11.1373    1.0696   23.3594 C   0  0  0  0  0  0  0  0  0  0  0  0
   12.2685    1.8406   22.7464 N   0  0  0  0  0  0  0  0  0  0  0  0
   12.0600    3.2617   22.3137 C   0  0  0  0  0  0  0  0  0  0  0  0
   10.7202    3.9116   22.4940 C   0  0  0  0  0  0  0  0  0  0  0  0
    9.5890    3.1406   23.1070 C   0  0  0  0  0  0  0  0  0  0  0  0
    9.7975    1.7196   23.5397 N   0  0  0  0  0  0  0  0  0  0  0  0
  1  2  2  0  0  0
  2  3  1  0  0  0
  3  4  2  0  0  0
  4  5  1  0  0  0
  5  6  2  0  0  0
  6  7  1  0  0  0
  6  8  1  0  0  0
  8  9  2  0  0  0
  9 10  1  0  0  0
 10 11  1  0  0  0
 11 12  1  0  0  0
 12 28  1  0  0  0
 28 29  1  0  0  0
 29 30  1  0  0  0
 30 31  1  0  0  0
 31 32  1  0  0  0
 32 33  1  0  0  0
 33 34  1  0  0  0
 34 35  1  0  0  0
 32 36  1  0  0  0
 10 13  1  0  0  0
 13 14  2  0  0  0
 13 15  1  0  0  0
 15 18  1  0  0  0
 18 19  2  0  0  0
 19 20  1  0  0  0
 20 21  2  0  0  0
 21 22  1  0  0  0
 22 23  2  0  0  0
 23 24  1  0  0  0
 24 25  2  0  0  0
 25 26  1  0  0  0
 26 27  2  0  0  0
 15 16  1  0  0  0
 16 17  1  0  0  0
 17 38  1  0  0  0
 38 39  1  0  0  0
 39 41  1  0  0  0
 41 42  2  0  0  0
 42 43  1  0  0  0
 43 44  2  0  0  0
 44 45  1  0  0  0
 45 46  2  0  0  0
 12  2  1  0  0  0
 36 30  1  0  0  0
 27 18  1  0  0  0
 46 41  1  0  0  0
  9  3  1  0  0  0
 17 10  1  0  0  0
 35 32  1  0  0  0
 27 22  1  0  0  0
 30 37  1  0  0  0
 39 40  1  0  0  0
M  CHG 1  30   1
M  END
> <minimizedAffinity>
-8.52005

> <CNNscore>
0.3901686370

> <CNNaffinity>
7.0394182205

> <CNN_VS>
2.7465600967

> <CNNaffinity_variance>
0.3038219810

$$$$



 46 53  0  0  0  0  0  0  0  0999 V2000
    7.3598    4.1742   22.9860 O   0  0  0  0  0  0  0  0  0  0  0  0
    7.5183    2.6865   23.0942 C   0  0  0  0  0  0  0  0  0  0  0  0
    8.8808    2.0678   22.9896 C   0  0  0  0  0  0  0  0  0  0  0  0
   10.0847    2.9368   22.7770 C   0  0  0  0  0  0  0  0  0  0  0  0
   11.4472    2.3182   22.6724 C   0  0  0  0  0  0  0  0  0  0  0  0
   11.6057    0.8305   22.7806 C   0  0  0  0  0  0  0  0  0  0  0  0
   13.0738    0.5594   22.6343 Cl  0  0  0  0  0  0  0  0  0  0  0  0
   10.4017   -0.0385   22.9933 C   0  0  0  0  0  0  0  0  0  0  0  0
    9.0393    0.5802   23.0978 C   0  0  0  0  0  0  0  0  0  0  0  0
    7.8352   -0.2889   23.3105 C   0  0  0  0  0  0  0  0  0  0  0  0
    6.4728    0.3298   23.4150 C   0  0  0  0  0  0  0  0  0  0  0  0
    6.3143    1.8175   23.3069 N   0  0  0  0  0  0  0  0  0  0  0  0
    6.7296   -1.2803   23.5222 C   0  0  0  0  0  0  0  0  0  0  0  0
    5.2714   -0.9580   23.6630 O   0  0  0  0  0  0  0  0  0  0  0  0
    7.3382   -2.6505   23.5685 N   0  0  0  0  0  0  0  0  0  0  0  0
    8.8200   -2.5059   23.3853 C   0  0  0  0  0  0  0  0  0  0  0  0
    9.1271   -1.0464   23.2259 C   0  0  0  0  0  0  0  0  0  0  0  0
    6.5955   -3.9390   23.7636 C   0  0  0  0  0  0  0  0  0  0  0  0
    6.5347   -4.9452   22.6530 C   0  0  0  0  0  0  0  0  0  0  0  0
    5.7919   -6.2337   22.8481 N   0  0  0  0  0  0  0  0  0  0  0  0
    5.1100   -6.5159   24.1540 C   0  0  0  0  0  0  0  0  0  0  0  0
    5.1708   -5.5096   25.2647 C   0  0  0  0  0  0  0  0  0  0  0  0
    4.4888   -5.7918   26.5706 C   0  0  0  0  0  0  0  0  0  0  0  0
    4.5496   -4.7854   27.6813 C   0  0  0  0  0  0  0  0  0  0  0  0
    5.2924   -3.4970   27.4861 C   0  0  0  0  0  0  0  0  0  0  0  0
    5.9743   -3.2148   26.1802 C   0  0  0  0  0  0  0  0  0  0  0  0
    5.9135   -4.2211   25.0696 C   0  0  0  0  0  0  0  0  0  0  0  0
    4.9518    2.4362   23.4114 C   0  0  0  0  0  0  0  0  0  0  0  0
    3.9205    2.1614   22.3574 C   0  0  0  0  0  0  0  0  0  0  0  0
    4.3263    1.5350   21.0564 N   0  0  0  0  0  0  0  0  0  0  0  0
    4.2350    1.9336   19.6132 C   0  0  0  0  0  0  0  0  0  0  0  0
    4.9002    0.6490   19.2163 C   0  0  0  0  0  0  0  0  0  0  0  0
    4.8089    1.0477   17.7731 C   0  0  0  0  0  0  0  0  0  0  0  0
    5.4740   -0.2368   17.3762 O   0  0  0  0  0  0  0  0  0  0  0  0
    5.5652   -0.6354   18.8194 C   0  0  0  0  0  0  0  0  0  0  0  0
    4.9914    0.2504   20.6594 C   0  0  0  0  0  0  0  0  0  0  0  0
    4.6022    1.1090   20.1716 H   0  0  0  0  0  0  0  0  0  0  0  0
   10.4874   -0.4492   23.0183 C   0  0  0  0  0  0  0  0  0  0  0  0
   11.3691   -0.1634   24.1976 N   0  0  0  0  0  0  0  0  0  0  0  0
   11.6185    0.7645   24.4123 H   0  0  0  0  0  0  0  0  0  0  0  0
   11.8708   -1.2911   25.0498 C   0  0  0  0  0  0  0  0  0  0  0  0
   13.3229   -1.3638   25.4188 N   0  0  0  0  0  0  0  0  0  0  0  0
   13.8246   -2.4916   26.2711 C   0  0  0  0  0  0  0  0  0  0  0  0
   12.8743   -3.5467   26.7544 C   0  0  0  0  0  0  0  0  0  0  0  0
   11.4222   -3.4740   26.3854 C   0  0  0  0  0  0  0  0  0  0  0  0
   10.9205   -2.3463   25.5332 N   0  0  0  0  0  0  0  0  0  0  0  0
  1  2  2  0  0  0
  2  3  1  0  0  0
  3  4  2  0  0  0
  4  5  1  0  0  0
  5  6  2  0  0  0
  6  7  1  0  0  0
  6  8  1  0  0  0
  8  9  2  0  0  0
  9 10  1  0  0  0
 10 11  1  0  0  0
 11 12  1  0  0  0
 12 28  1  0  0  0
 28 29  1  0  0  0
 29 30  1  0  0  0
 30 31  1  0  0  0
 31 32  1  0  0  0
 32 33  1  0  0  0
 33 34  1  0  0  0
 34 35  1  0  0  0
 32 36  1  0  0  0
 10 13  1  0  0  0
 13 14  2  0  0  0
 13 15  1  0  0  0
 15 18  1  0  0  0
 18 19  2  0  0  0
 19 20  1  0  0  0
 20 21  2  0  0  0
 21 22  1  0  0  0
 22 23  2  0  0  0
 23 24  1  0  0  0
 24 25  2  0  0  0
 25 26  1  0  0  0
 26 27  2  0  0  0
 15 16  1  0  0  0
 16 17  1  0  0  0
 17 38  1  0  0  0
 38 39  1  0  0  0
 39 41  1  0  0  0
 41 42  2  0  0  0
 42 43  1  0  0  0
 43 44  2  0  0  0
 44 45  1  0  0  0
 45 46  2  0  0  0
 12  2  1  0  0  0
 36 30  1  0  0  0
 27 18  1  0  0  0
 46 41  1  0  0  0
  9  3  1  0  0  0
 17 10  1  0  0  0
 35 32  1  0  0  0
 27 22  1  0  0  0
 30 37  1  0  0  0
 39 40  1  0  0  0
M  CHG 1  30   1
M  END
> <minimizedAffinity>
-9.70478

> <CNNscore>
0.3791756630

> <CNNaffinity>
7.3134703636

> <CNN_VS>
2.7730898857

> <CNNaffinity_variance>
0.4300538599

$$$$



 46 53  0  0  0  0  0  0  0  0999 V2000
    5.6437    4.5461   21.4016 O   0  0  0  0  0  0  0  0  0  0  0  0
    6.4754    3.3274   21.6720 C   0  0  0  0  0  0  0  0  0  0  0  0
    6.1423    2.0280   21.0007 C   0  0  0  0  0  0  0  0  0  0  0  0
    4.9775    1.9472   20.0591 C   0  0  0  0  0  0  0  0  0  0  0  0
    4.6444    0.6478   19.3879 C   0  0  0  0  0  0  0  0  0  0  0  0
    5.4761   -0.5708   19.6583 C   0  0  0  0  0  0  0  0  0  0  0  0
    4.8740   -1.6727   18.8377 Cl  0  0  0  0  0  0  0  0  0  0  0  0
    6.6409   -0.4901   20.5999 C   0  0  0  0  0  0  0  0  0  0  0  0
    6.9740    0.8093   21.2712 C   0  0  0  0  0  0  0  0  0  0  0  0
    8.1388    0.8901   22.2128 C   0  0  0  0  0  0  0  0  0  0  0  0
    8.4719    2.1895   22.8841 C   0  0  0  0  0  0  0  0  0  0  0  0
    7.6402    3.4082   22.6136 N   0  0  0  0  0  0  0  0  0  0  0  0
    9.3273    0.8185   23.1251 C   0  0  0  0  0  0  0  0  0  0  0  0
    9.8928    1.9529   23.9272 O   0  0  0  0  0  0  0  0  0  0  0  0
    9.8511   -0.5868   23.0946 N   0  0  0  0  0  0  0  0  0  0  0  0
    8.9863   -1.3836   22.1634 C   0  0  0  0  0  0  0  0  0  0  0  0
    7.9281   -0.4708   21.6185 C   0  0  0  0  0  0  0  0  0  0  0  0
   11.0323   -1.1043   23.8607 C   0  0  0  0  0  0  0  0  0  0  0  0
   12.4123   -0.6188   23.5294 C   0  0  0  0  0  0  0  0  0  0  0  0
   13.5934   -1.1363   24.2956 N   0  0  0  0  0  0  0  0  0  0  0  0
   13.3946   -2.1393   25.3930 C   0  0  0  0  0  0  0  0  0  0  0  0
   12.0145   -2.6248   25.7243 C   0  0  0  0  0  0  0  0  0  0  0  0
   11.8156   -3.6279   26.8219 C   0  0  0  0  0  0  0  0  0  0  0  0
   10.4355   -4.1133   27.1531 C   0  0  0  0  0  0  0  0  0  0  0  0
    9.2545   -3.5957   26.3870 C   0  0  0  0  0  0  0  0  0  0  0  0
    9.4533   -2.5928   25.2895 C   0  0  0  0  0  0  0  0  0  0  0  0
   10.8333   -2.1073   24.9582 C   0  0  0  0  0  0  0  0  0  0  0  0
    7.9733    4.7077   23.2849 C   0  0  0  0  0  0  0  0  0  0  0  0
    7.0814    5.2441   24.3650 C   0  0  0  0  0  0  0  0  0  0  0  0
    7.6061    6.2612   25.3346 N   0  0  0  0  0  0  0  0  0  0  0  0
    7.4117    6.5315   26.7971 C   0  0  0  0  0  0  0  0  0  0  0  0
    8.3482    7.6998   26.7057 C   0  0  0  0  0  0  0  0  0  0  0  0
    8.1537    7.9700   28.1683 C   0  0  0  0  0  0  0  0  0  0  0  0
    9.0902    9.1382   28.0770 O   0  0  0  0  0  0  0  0  0  0  0  0
    9.2846    8.8679   26.6144 C   0  0  0  0  0  0  0  0  0  0  0  0
    8.5426    7.4295   25.2432 C   0  0  0  0  0  0  0  0  0  0  0  0
    7.9629    6.9529   25.9939 H   0  0  0  0  0  0  0  0  0  0  0  0
    6.8486   -0.8521   20.6493 C   0  0  0  0  0  0  0  0  0  0  0  0
    5.5749   -1.4670   21.1489 N   0  0  0  0  0  0  0  0  0  0  0  0
    4.7068   -1.0890   20.8789 H   0  0  0  0  0  0  0  0  0  0  0  0
    5.6236   -2.6578   22.0597 C   0  0  0  0  0  0  0  0  0  0  0  0
    5.9659   -2.4798   23.5092 N   0  0  0  0  0  0  0  0  0  0  0  0
    6.0147   -3.6706   24.4200 C   0  0  0  0  0  0  0  0  0  0  0  0
    5.7211   -5.0394   23.8813 C   0  0  0  0  0  0  0  0  0  0  0  0
    5.3788   -5.2174   22.4318 C   0  0  0  0  0  0  0  0  0  0  0  0
    5.3301   -4.0267   21.5210 N   0  0  0  0  0  0  0  0  0  0  0  0
  1  2  2  0  0  0
  2  3  1  0  0  0
  3  4  2  0  0  0
  4  5  1  0  0  0
  5  6  2  0  0  0
  6  7  1  0  0  0
  6  8  1  0  0  0
  8  9  2  0  0  0
  9 10  1  0  0  0
 10 11  1  0  0  0
 11 12  1  0  0  0
 12 28  1  0  0  0
 28 29  1  0  0  0
 29 30  1  0  0  0
 30 31  1  0  0  0
 31 32  1  0  0  0
 32 33  1  0  0  0
 33 34  1  0  0  0
 34 35  1  0  0  0
 32 36  1  0  0  0
 10 13  1  0  0  0
 13 14  2  0  0  0
 13 15  1  0  0  0
 15 18  1  0  0  0
 18 19  2  0  0  0
 19 20  1  0  0  0
 20 21  2  0  0  0
 21 22  1  0  0  0
 22 23  2  0  0  0
 23 24  1  0  0  0
 24 25  2  0  0  0
 25 26  1  0  0  0
 26 27  2  0  0  0
 15 16  1  0  0  0
 16 17  1  0  0  0
 17 38  1  0  0  0
 38 39  1  0  0  0
 39 41  1  0  0  0
 41 42  2  0  0  0
 42 43  1  0  0  0
 43 44  2  0  0  0
 44 45  1  0  0  0
 45 46  2  0  0  0
 12  2  1  0  0  0
 36 30  1  0  0  0
 27 18  1  0  0  0
 46 41  1  0  0  0
  9  3  1  0  0  0
 17 10  1  0  0  0
 35 32  1  0  0  0
 27 22  1  0  0  0
 30 37  1  0  0  0
 39 40  1  0  0  0
M  CHG 1  30   1
M  END
> <minimizedAffinity>
-8.26011

> <CNNscore>
0.3779287636

> <CNNaffinity>
7.0380768776

> <CNN_VS>
2.6598916054

> <CNNaffinity_variance>
0.1315203309

$$$$



 46 53  0  0  0  0  0  0  0  0999 V2000
    7.8587    5.0373   23.2587 O   0  0  0  0  0  0  0  0  0  0  0  0
    7.8551    3.5742   23.5892 C   0  0  0  0  0  0  0  0  0  0  0  0
    9.0923    2.7537   23.3744 C   0  0  0  0  0  0  0  0  0  0  0  0
   10.3332    3.3963   22.8291 C   0  0  0  0  0  0  0  0  0  0  0  0
   11.5703    2.5758   22.6144 C   0  0  0  0  0  0  0  0  0  0  0  0
   11.5667    1.1127   22.9448 C   0  0  0  0  0  0  0  0  0  0  0  0
   12.9410    0.6107   22.6141 Cl  0  0  0  0  0  0  0  0  0  0  0  0
   10.3259    0.4700   23.4901 C   0  0  0  0  0  0  0  0  0  0  0  0
    9.0887    1.2905   23.7048 C   0  0  0  0  0  0  0  0  0  0  0  0
    7.8478    0.6479   24.2501 C   0  0  0  0  0  0  0  0  0  0  0  0
    6.6106    1.4684   24.4649 C   0  0  0  0  0  0  0  0  0  0  0  0
    6.6143    2.9315   24.1344 N   0  0  0  0  0  0  0  0  0  0  0  0
    6.6882   -0.1291   24.7993 C   0  0  0  0  0  0  0  0  0  0  0  0
    5.3286    0.4207   25.1146 O   0  0  0  0  0  0  0  0  0  0  0  0
    7.1268   -1.5524   24.9780 N   0  0  0  0  0  0  0  0  0  0  0  0
    8.5575   -1.6550   24.5392 C   0  0  0  0  0  0  0  0  0  0  0  0
    9.0031   -0.2952   24.0894 C   0  0  0  0  0  0  0  0  0  0  0  0
    6.2829   -2.6757   25.5033 C   0  0  0  0  0  0  0  0  0  0  0  0
    6.0053   -2.7811   26.9735 C   0  0  0  0  0  0  0  0  0  0  0  0
    5.1614   -3.9044   27.4988 N   0  0  0  0  0  0  0  0  0  0  0  0
    4.5951   -4.9223   26.5538 C   0  0  0  0  0  0  0  0  0  0  0  0
    4.8727   -4.8169   25.0834 C   0  0  0  0  0  0  0  0  0  0  0  0
    4.3064   -5.8349   24.1384 C   0  0  0  0  0  0  0  0  0  0  0  0
    4.5841   -5.7294   22.6681 C   0  0  0  0  0  0  0  0  0  0  0  0
    5.4280   -4.6061   22.1429 C   0  0  0  0  0  0  0  0  0  0  0  0
    5.9943   -3.5882   23.0879 C   0  0  0  0  0  0  0  0  0  0  0  0
    5.7167   -3.6936   24.5582 C   0  0  0  0  0  0  0  0  0  0  0  0
    5.3770    3.7520   24.3492 C   0  0  0  0  0  0  0  0  0  0  0  0
    4.4796    4.0732   23.1910 C   0  0  0  0  0  0  0  0  0  0  0  0
    4.6140    5.3870   22.4799 N   0  0  0  0  0  0  0  0  0  0  0  0
    5.6137    5.9837   21.5341 C   0  0  0  0  0  0  0  0  0  0  0  0
    4.8041    7.2451   21.4743 C   0  0  0  0  0  0  0  0  0  0  0  0
    5.8039    7.8418   20.5284 C   0  0  0  0  0  0  0  0  0  0  0  0
    4.9944    9.1032   20.4686 O   0  0  0  0  0  0  0  0  0  0  0  0
    3.9947    8.5065   21.4144 C   0  0  0  0  0  0  0  0  0  0  0  0
    3.8046    6.6484   22.4201 C   0  0  0  0  0  0  0  0  0  0  0  0
    4.7055    6.2804   21.9964 H   0  0  0  0  0  0  0  0  0  0  0  0
   10.3649    0.0592   23.5699 C   0  0  0  0  0  0  0  0  0  0  0  0
   11.3775   -1.0194   23.3224 N   0  0  0  0  0  0  0  0  0  0  0  0
   11.6525   -1.2345   22.4019 H   0  0  0  0  0  0  0  0  0  0  0  0
   11.9711   -1.7702   24.4772 C   0  0  0  0  0  0  0  0  0  0  0  0
   11.2574   -2.9618   25.0435 N   0  0  0  0  0  0  0  0  0  0  0  0
   11.8511   -3.7126   26.1984 C   0  0  0  0  0  0  0  0  0  0  0  0
   13.1585   -3.2718   26.7870 C   0  0  0  0  0  0  0  0  0  0  0  0
   13.8722   -2.0802   26.2207 C   0  0  0  0  0  0  0  0  0  0  0  0
   13.2785   -1.3294   25.0659 N   0  0  0  0  0  0  0  0  0  0  0  0
  1  2  2  0  0  0
  2  3  1  0  0  0
  3  4  2  0  0  0
  4  5  1  0  0  0
  5  6  2  0  0  0
  6  7  1  0  0  0
  6  8  1  0  0  0
  8  9  2  0  0  0
  9 10  1  0  0  0
 10 11  1  0  0  0
 11 12  1  0  0  0
 12 28  1  0  0  0
 28 29  1  0  0  0
 29 30  1  0  0  0
 30 31  1  0  0  0
 31 32  1  0  0  0
 32 33  1  0  0  0
 33 34  1  0  0  0
 34 35  1  0  0  0
 32 36  1  0  0  0
 10 13  1  0  0  0
 13 14  2  0  0  0
 13 15  1  0  0  0
 15 18  1  0  0  0
 18 19  2  0  0  0
 19 20  1  0  0  0
 20 21  2  0  0  0
 21 22  1  0  0  0
 22 23  2  0  0  0
 23 24  1  0  0  0
 24 25  2  0  0  0
 25 26  1  0  0  0
 26 27  2  0  0  0
 15 16  1  0  0  0
 16 17  1  0  0  0
 17 38  1  0  0  0
 38 39  1  0  0  0
 39 41  1  0  0  0
 41 42  2  0  0  0
 42 43  1  0  0  0
 43 44  2  0  0  0
 44 45  1  0  0  0
 45 46  2  0  0  0
 12  2  1  0  0  0
 36 30  1  0  0  0
 27 18  1  0  0  0
 46 41  1  0  0  0
  9  3  1  0  0  0
 17 10  1  0  0  0
 35 32  1  0  0  0
 27 22  1  0  0  0
 30 37  1  0  0  0
 39 40  1  0  0  0
M  CHG 1  30   1
M  END
> <minimizedAffinity>
-8.33387

> <CNNscore>
0.3761035502

> <CNNaffinity>
6.9942641258

> <CNN_VS>
2.6305675507

> <CNNaffinity_variance>
0.1565827876

$$$$
