


 23 25  0  0  0  0  0  0  0  0999 V2000
   -5.3441   -3.8641  -20.9961 O   0  0  0  0  0  0  0  0  0  0  0  0
   -6.3426   -3.1712  -21.8754 C   0  0  0  0  0  0  0  0  0  0  0  0
   -7.1245   -3.9569  -22.8861 N   0  0  0  0  0  0  0  0  0  0  0  0
   -8.1229   -3.2642  -23.7653 C   0  0  0  0  0  0  0  0  0  0  0  0
   -8.9048   -4.0499  -24.7760 C   0  0  0  0  0  0  0  0  0  0  0  0
   -8.6882   -5.5283  -24.9073 C   0  0  0  0  0  0  0  0  0  0  0  0
   -7.6897   -6.2211  -24.0280 C   0  0  0  0  0  0  0  0  0  0  0  0
   -6.9079   -5.4354  -23.0174 C   0  0  0  0  0  0  0  0  0  0  0  0
   -9.4701   -6.3140  -25.9179 C   0  0  0  0  0  0  0  0  0  0  0  0
  -10.2520   -7.0997  -26.9286 F   0  0  0  0  0  0  0  0  0  0  0  0
  -10.6404   -5.3955  -25.7266 F   0  0  0  0  0  0  0  0  0  0  0  0
   -8.2998   -7.2326  -26.1092 F   0  0  0  0  0  0  0  0  0  0  0  0
   -6.5592   -1.6928  -21.7441 C   0  0  0  0  0  0  0  0  0  0  0  0
   -6.0540   -0.9654  -20.5334 C   0  0  0  0  0  0  0  0  0  0  0  0
   -6.7594   -1.1175  -19.2184 C   0  0  0  0  0  0  0  0  0  0  0  0
   -6.2542   -0.3901  -18.0078 N   0  0  0  0  0  0  0  0  0  0  0  0
   -5.0436    0.4893  -18.1121 C   0  0  0  0  0  0  0  0  0  0  0  0
   -4.3381    0.6415  -19.4271 C   0  0  0  0  0  0  0  0  0  0  0  0
   -3.1275    1.5209  -19.5315 C   0  0  0  0  0  0  0  0  0  0  0  0
   -2.4221    1.6730  -20.8464 C   0  0  0  0  0  0  0  0  0  0  0  0
   -2.9273    0.9456  -22.0571 C   0  0  0  0  0  0  0  0  0  0  0  0
   -4.1379    0.0661  -21.9528 C   0  0  0  0  0  0  0  0  0  0  0  0
   -4.8433   -0.0859  -20.6378 C   0  0  0  0  0  0  0  0  0  0  0  0
  1  2  2  0  0  0
  2 13  1  0  0  0
 13 14  1  0  0  0
 14 15  2  0  0  0
 15 16  1  0  0  0
 16 17  2  0  0  0
 17 18  1  0  0  0
 18 19  2  0  0  0
 19 20  1  0  0  0
 20 21  2  0  0  0
 21 22  1  0  0  0
 22 23  2  0  0  0
  2  3  1  0  0  0
  3  4  1  0  0  0
  4  5  1  0  0  0
  5  6  1  0  0  0
  6  9  1  0  0  0
  9 10  1  0  0  0
  9 11  1  0  0  0
  9 12  1  0  0  0
  6  7  1  0  0  0
  7  8  1  0  0  0
 23 14  1  0  0  0
  8  3  1  0  0  0
 23 18  1  0  0  0
M  END
> <minimizedAffinity>
-7.39996

> <CNNscore>
0.6620784998

> <CNNaffinity>
5.2967238426

> <CNN_VS>
3.5068469048

> <CNNaffinity_variance>
0.2798759341

$$$$



 23 25  0  0  0  0  0  0  0  0999 V2000
   -8.7644   -1.1067  -21.4406 O   0  0  0  0  0  0  0  0  0  0  0  0
   -7.8701   -2.1394  -22.0604 C   0  0  0  0  0  0  0  0  0  0  0  0
   -8.3755   -2.9897  -23.1880 N   0  0  0  0  0  0  0  0  0  0  0  0
   -7.4813   -4.0223  -23.8077 C   0  0  0  0  0  0  0  0  0  0  0  0
   -7.9867   -4.8726  -24.9354 C   0  0  0  0  0  0  0  0  0  0  0  0
   -9.3862   -4.6903  -25.4433 C   0  0  0  0  0  0  0  0  0  0  0  0
  -10.2805   -3.6577  -24.8235 C   0  0  0  0  0  0  0  0  0  0  0  0
   -9.7751   -2.8074  -23.6959 C   0  0  0  0  0  0  0  0  0  0  0  0
   -9.8916   -5.5407  -26.5709 C   0  0  0  0  0  0  0  0  0  0  0  0
  -10.3969   -6.3910  -27.6985 F   0  0  0  0  0  0  0  0  0  0  0  0
   -9.8888   -6.7389  -25.6686 F   0  0  0  0  0  0  0  0  0  0  0  0
   -9.8943   -4.3424  -27.4732 F   0  0  0  0  0  0  0  0  0  0  0  0
   -6.4706   -2.3217  -21.5524 C   0  0  0  0  0  0  0  0  0  0  0  0
   -5.9519   -1.4443  -20.4519 C   0  0  0  0  0  0  0  0  0  0  0  0
   -6.4848   -1.5954  -19.0580 C   0  0  0  0  0  0  0  0  0  0  0  0
   -5.9661   -0.7180  -17.9575 N   0  0  0  0  0  0  0  0  0  0  0  0
   -4.9144    0.3105  -18.2509 C   0  0  0  0  0  0  0  0  0  0  0  0
   -4.3814    0.4616  -19.6449 C   0  0  0  0  0  0  0  0  0  0  0  0
   -3.3297    1.4901  -19.9383 C   0  0  0  0  0  0  0  0  0  0  0  0
   -2.7968    1.6412  -21.3323 C   0  0  0  0  0  0  0  0  0  0  0  0
   -3.3155    0.7638  -22.4328 C   0  0  0  0  0  0  0  0  0  0  0  0
   -4.3672   -0.2646  -22.1393 C   0  0  0  0  0  0  0  0  0  0  0  0
   -4.9001   -0.4157  -20.7454 C   0  0  0  0  0  0  0  0  0  0  0  0
  1  2  2  0  0  0
  2 13  1  0  0  0
 13 14  1  0  0  0
 14 15  2  0  0  0
 15 16  1  0  0  0
 16 17  2  0  0  0
 17 18  1  0  0  0
 18 19  2  0  0  0
 19 20  1  0  0  0
 20 21  2  0  0  0
 21 22  1  0  0  0
 22 23  2  0  0  0
  2  3  1  0  0  0
  3  4  1  0  0  0
  4  5  1  0  0  0
  5  6  1  0  0  0
  6  9  1  0  0  0
  9 10  1  0  0  0
  9 11  1  0  0  0
  9 12  1  0  0  0
  6  7  1  0  0  0
  7  8  1  0  0  0
 23 14  1  0  0  0
  8  3  1  0  0  0
 23 18  1  0  0  0
M  END
> <minimizedAffinity>
-7.11902

> <CNNscore>
0.6552991271

> <CNNaffinity>
5.1991128922

> <CNN_VS>
3.4069740772

> <CNNaffinity_variance>
0.2531117797

$$$$



 23 25  0  0  0  0  0  0  0  0999 V2000
   -6.4431    0.2003  -24.3993 O   0  0  0  0  0  0  0  0  0  0  0  0
   -6.9830   -0.7456  -23.3679 C   0  0  0  0  0  0  0  0  0  0  0  0
   -8.4633   -0.9518  -23.2412 N   0  0  0  0  0  0  0  0  0  0  0  0
   -9.0032   -1.8977  -22.2098 C   0  0  0  0  0  0  0  0  0  0  0  0
  -10.4836   -2.1039  -22.0831 C   0  0  0  0  0  0  0  0  0  0  0  0
  -11.4240   -1.3642  -22.9877 C   0  0  0  0  0  0  0  0  0  0  0  0
  -10.8841   -0.4182  -24.0192 C   0  0  0  0  0  0  0  0  0  0  0  0
   -9.4038   -0.2120  -24.1459 C   0  0  0  0  0  0  0  0  0  0  0  0
  -12.9044   -1.5704  -22.8610 C   0  0  0  0  0  0  0  0  0  0  0  0
  -14.3847   -1.7766  -22.7343 F   0  0  0  0  0  0  0  0  0  0  0  0
  -13.1436   -0.2056  -23.4357 F   0  0  0  0  0  0  0  0  0  0  0  0
  -12.6651   -2.9351  -22.2863 F   0  0  0  0  0  0  0  0  0  0  0  0
   -6.0425   -1.4853  -22.4633 C   0  0  0  0  0  0  0  0  0  0  0  0
   -5.6700   -0.9040  -21.1316 C   0  0  0  0  0  0  0  0  0  0  0  0
   -6.4507   -1.2760  -19.9060 C   0  0  0  0  0  0  0  0  0  0  0  0
   -6.0782   -0.6946  -18.5744 N   0  0  0  0  0  0  0  0  0  0  0  0
   -4.9250    0.2586  -18.4683 C   0  0  0  0  0  0  0  0  0  0  0  0
   -4.1442    0.6307  -19.6940 C   0  0  0  0  0  0  0  0  0  0  0  0
   -2.9910    1.5839  -19.5879 C   0  0  0  0  0  0  0  0  0  0  0  0
   -2.2103    1.9559  -20.8135 C   0  0  0  0  0  0  0  0  0  0  0  0
   -2.5828    1.3746  -22.1451 C   0  0  0  0  0  0  0  0  0  0  0  0
   -3.7360    0.4213  -22.2512 C   0  0  0  0  0  0  0  0  0  0  0  0
   -4.5167    0.0493  -21.0256 C   0  0  0  0  0  0  0  0  0  0  0  0
  1  2  2  0  0  0
  2 13  1  0  0  0
 13 14  1  0  0  0
 14 15  2  0  0  0
 15 16  1  0  0  0
 16 17  2  0  0  0
 17 18  1  0  0  0
 18 19  2  0  0  0
 19 20  1  0  0  0
 20 21  2  0  0  0
 21 22  1  0  0  0
 22 23  2  0  0  0
  2  3  1  0  0  0
  3  4  1  0  0  0
  4  5  1  0  0  0
  5  6  1  0  0  0
  6  9  1  0  0  0
  9 10  1  0  0  0
  9 11  1  0  0  0
  9 12  1  0  0  0
  6  7  1  0  0  0
  7  8  1  0  0  0
 23 14  1  0  0  0
  8  3  1  0  0  0
 23 18  1  0  0  0
M  END
> <minimizedAffinity>
-6.45281

> <CNNscore>
0.5918559432

> <CNNaffinity>
5.3506536484

> <CNN_VS>
3.1668162346

> <CNNaffinity_variance>
0.1988961399

$$$$



 23 25  0  0  0  0  0  0  0  0999 V2000
  -11.6395   -3.4007  -23.6582 O   0  0  0  0  0  0  0  0  0  0  0  0
  -10.7739   -2.1890  -23.8389 C   0  0  0  0  0  0  0  0  0  0  0  0
  -11.3621   -0.8176  -23.6868 N   0  0  0  0  0  0  0  0  0  0  0  0
  -10.4966    0.3940  -23.8675 C   0  0  0  0  0  0  0  0  0  0  0  0
  -11.0849    1.7654  -23.7153 C   0  0  0  0  0  0  0  0  0  0  0  0
  -12.5387    1.9252  -23.3825 C   0  0  0  0  0  0  0  0  0  0  0  0
  -13.4043    0.7135  -23.2017 C   0  0  0  0  0  0  0  0  0  0  0  0
  -12.8160   -0.6579  -23.3539 C   0  0  0  0  0  0  0  0  0  0  0  0
  -13.1269    3.2966  -23.2303 C   0  0  0  0  0  0  0  0  0  0  0  0
  -13.7152    4.6680  -23.0782 F   0  0  0  0  0  0  0  0  0  0  0  0
  -13.0702    3.1554  -21.7380 F   0  0  0  0  0  0  0  0  0  0  0  0
  -13.1837    3.4378  -24.7226 F   0  0  0  0  0  0  0  0  0  0  0  0
   -9.3200   -2.3488  -24.1718 C   0  0  0  0  0  0  0  0  0  0  0  0
   -8.6842   -3.7065  -24.1230 C   0  0  0  0  0  0  0  0  0  0  0  0
   -7.9616   -4.1523  -22.8864 C   0  0  0  0  0  0  0  0  0  0  0  0
   -7.3258   -5.5100  -22.8376 N   0  0  0  0  0  0  0  0  0  0  0  0
   -7.4127   -6.4220  -24.0254 C   0  0  0  0  0  0  0  0  0  0  0  0
   -8.1354   -5.9762  -25.2620 C   0  0  0  0  0  0  0  0  0  0  0  0
   -8.2223   -6.8882  -26.4497 C   0  0  0  0  0  0  0  0  0  0  0  0
   -8.9449   -6.4425  -27.6862 C   0  0  0  0  0  0  0  0  0  0  0  0
   -9.5807   -5.0847  -27.7350 C   0  0  0  0  0  0  0  0  0  0  0  0
   -9.4938   -4.1728  -26.5473 C   0  0  0  0  0  0  0  0  0  0  0  0
   -8.7712   -4.6185  -25.3108 C   0  0  0  0  0  0  0  0  0  0  0  0
  1  2  2  0  0  0
  2 13  1  0  0  0
 13 14  1  0  0  0
 14 15  2  0  0  0
 15 16  1  0  0  0
 16 17  2  0  0  0
 17 18  1  0  0  0
 18 19  2  0  0  0
 19 20  1  0  0  0
 20 21  2  0  0  0
 21 22  1  0  0  0
 22 23  2  0  0  0
  2  3  1  0  0  0
  3  4  1  0  0  0
  4  5  1  0  0  0
  5  6  1  0  0  0
  6  9  1  0  0  0
  9 10  1  0  0  0
  9 11  1  0  0  0
  9 12  1  0  0  0
  6  7  1  0  0  0
  7  8  1  0  0  0
 23 14  1  0  0  0
  8  3  1  0  0  0
 23 18  1  0  0  0
M  END
> <minimizedAffinity>
-7.00060

> <CNNscore>
0.4393529594

> <CNNaffinity>
5.0553612709

> <CNN_VS>
2.2210879326

> <CNNaffinity_variance>
0.2612425387

$$$$



 23 25  0  0  0  0  0  0  0  0999 V2000
   -7.0589   -0.4128  -18.7952 O   0  0  0  0  0  0  0  0  0  0  0  0
   -6.4861   -0.3688  -20.1809 C   0  0  0  0  0  0  0  0  0  0  0  0
   -5.1427    0.2552  -20.4176 N   0  0  0  0  0  0  0  0  0  0  0  0
   -4.5699    0.2993  -21.8031 C   0  0  0  0  0  0  0  0  0  0  0  0
   -3.2265    0.9232  -22.0398 C   0  0  0  0  0  0  0  0  0  0  0  0
   -2.4559    1.5030  -20.8909 C   0  0  0  0  0  0  0  0  0  0  0  0
   -3.0288    1.4589  -19.5053 C   0  0  0  0  0  0  0  0  0  0  0  0
   -4.3721    0.8350  -19.2686 C   0  0  0  0  0  0  0  0  0  0  0  0
   -1.1125    2.1269  -21.1276 C   0  0  0  0  0  0  0  0  0  0  0  0
    0.2308    2.7508  -21.3643 F   0  0  0  0  0  0  0  0  0  0  0  0
   -1.5040    2.4329  -22.5429 F   0  0  0  0  0  0  0  0  0  0  0  0
   -0.7211    1.8209  -19.7123 F   0  0  0  0  0  0  0  0  0  0  0  0
   -7.2567   -0.9486  -21.3297 C   0  0  0  0  0  0  0  0  0  0  0  0
   -8.2173   -0.0901  -22.0979 C   0  0  0  0  0  0  0  0  0  0  0  0
   -7.8605    1.3306  -22.4209 C   0  0  0  0  0  0  0  0  0  0  0  0
   -8.8212    2.1891  -23.1891 N   0  0  0  0  0  0  0  0  0  0  0  0
  -10.1386    1.6270  -23.6343 C   0  0  0  0  0  0  0  0  0  0  0  0
  -10.4955    0.2062  -23.3113 C   0  0  0  0  0  0  0  0  0  0  0  0
  -11.8130   -0.3559  -23.7564 C   0  0  0  0  0  0  0  0  0  0  0  0
  -12.1698   -1.7765  -23.4334 C   0  0  0  0  0  0  0  0  0  0  0  0
  -11.2092   -2.6351  -22.6652 C   0  0  0  0  0  0  0  0  0  0  0  0
   -9.8917   -2.0729  -22.2201 C   0  0  0  0  0  0  0  0  0  0  0  0
   -9.5349   -0.6523  -22.5431 C   0  0  0  0  0  0  0  0  0  0  0  0
  1  2  2  0  0  0
  2 13  1  0  0  0
 13 14  1  0  0  0
 14 15  2  0  0  0
 15 16  1  0  0  0
 16 17  2  0  0  0
 17 18  1  0  0  0
 18 19  2  0  0  0
 19 20  1  0  0  0
 20 21  2  0  0  0
 21 22  1  0  0  0
 22 23  2  0  0  0
  2  3  1  0  0  0
  3  4  1  0  0  0
  4  5  1  0  0  0
  5  6  1  0  0  0
  6  9  1  0  0  0
  9 10  1  0  0  0
  9 11  1  0  0  0
  9 12  1  0  0  0
  6  7  1  0  0  0
  7  8  1  0  0  0
 23 14  1  0  0  0
  8  3  1  0  0  0
 23 18  1  0  0  0
M  END
> <minimizedAffinity>
-6.36640

> <CNNscore>
0.3796973228

> <CNNaffinity>
4.9177842140

> <CNN_VS>
1.8672695160

> <CNNaffinity_variance>
0.3089169860

$$$$



 23 25  0  0  0  0  0  0  0  0999 V2000
   -6.2591   -3.3056  -22.6820 O   0  0  0  0  0  0  0  0  0  0  0  0
   -6.8458   -2.0054  -23.1462 C   0  0  0  0  0  0  0  0  0  0  0  0
   -8.3322   -1.8044  -23.1279 N   0  0  0  0  0  0  0  0  0  0  0  0
   -8.9189   -0.5043  -23.5921 C   0  0  0  0  0  0  0  0  0  0  0  0
  -10.4053   -0.3033  -23.5739 C   0  0  0  0  0  0  0  0  0  0  0  0
  -11.3049   -1.4024  -23.0915 C   0  0  0  0  0  0  0  0  0  0  0  0
  -10.7182   -2.7025  -22.6273 C   0  0  0  0  0  0  0  0  0  0  0  0
   -9.2318   -2.9035  -22.6455 C   0  0  0  0  0  0  0  0  0  0  0  0
  -12.7913   -1.2013  -23.0733 C   0  0  0  0  0  0  0  0  0  0  0  0
  -14.2776   -1.0003  -23.0551 F   0  0  0  0  0  0  0  0  0  0  0  0
  -12.6154    0.1549  -23.6894 F   0  0  0  0  0  0  0  0  0  0  0  0
  -12.9671   -2.5576  -22.4572 F   0  0  0  0  0  0  0  0  0  0  0  0
   -5.9462   -0.9064  -23.6285 C   0  0  0  0  0  0  0  0  0  0  0  0
   -4.9555   -0.2822  -22.6910 C   0  0  0  0  0  0  0  0  0  0  0  0
   -3.6649    0.2683  -23.2214 C   0  0  0  0  0  0  0  0  0  0  0  0
   -2.6742    0.8925  -22.2839 N   0  0  0  0  0  0  0  0  0  0  0  0
   -2.9741    0.9661  -20.8160 C   0  0  0  0  0  0  0  0  0  0  0  0
   -4.2647    0.4155  -20.2856 C   0  0  0  0  0  0  0  0  0  0  0  0
   -4.5645    0.4891  -18.8177 C   0  0  0  0  0  0  0  0  0  0  0  0
   -5.8551   -0.0615  -18.2874 C   0  0  0  0  0  0  0  0  0  0  0  0
   -6.8458   -0.6856  -19.2249 C   0  0  0  0  0  0  0  0  0  0  0  0
   -6.5459   -0.7592  -20.6928 C   0  0  0  0  0  0  0  0  0  0  0  0
   -5.2554   -0.2087  -21.2231 C   0  0  0  0  0  0  0  0  0  0  0  0
  1  2  2  0  0  0
  2 13  1  0  0  0
 13 14  1  0  0  0
 14 15  2  0  0  0
 15 16  1  0  0  0
 16 17  2  0  0  0
 17 18  1  0  0  0
 18 19  2  0  0  0
 19 20  1  0  0  0
 20 21  2  0  0  0
 21 22  1  0  0  0
 22 23  2  0  0  0
  2  3  1  0  0  0
  3  4  1  0  0  0
  4  5  1  0  0  0
  5  6  1  0  0  0
  6  9  1  0  0  0
  9 10  1  0  0  0
  9 11  1  0  0  0
  9 12  1  0  0  0
  6  7  1  0  0  0
  7  8  1  0  0  0
 23 14  1  0  0  0
  8  3  1  0  0  0
 23 18  1  0  0  0
M  END
> <minimizedAffinity>
-6.67875

> <CNNscore>
0.3415859640

> <CNNaffinity>
4.9429178238

> <CNN_VS>
1.6884313822

> <CNNaffinity_variance>
0.2249291688

$$$$



 23 25  0  0  0  0  0  0  0  0999 V2000
   -7.8637   -4.1601  -22.9164 O   0  0  0  0  0  0  0  0  0  0  0  0
   -7.8983   -2.6663  -23.0493 C   0  0  0  0  0  0  0  0  0  0  0  0
   -6.9643   -1.8193  -22.2367 N   0  0  0  0  0  0  0  0  0  0  0  0
   -6.9988   -0.3257  -22.3695 C   0  0  0  0  0  0  0  0  0  0  0  0
   -6.0649    0.5213  -21.5569 C   0  0  0  0  0  0  0  0  0  0  0  0
   -5.0964   -0.1253  -20.6115 C   0  0  0  0  0  0  0  0  0  0  0  0
   -5.0618   -1.6191  -20.4787 C   0  0  0  0  0  0  0  0  0  0  0  0
   -5.9958   -2.4661  -21.2913 C   0  0  0  0  0  0  0  0  0  0  0  0
   -4.1624    0.7217  -19.7989 C   0  0  0  0  0  0  0  0  0  0  0  0
   -3.2284    1.5687  -18.9863 F   0  0  0  0  0  0  0  0  0  0  0  0
   -3.2280    0.8136  -20.9687 F   0  0  0  0  0  0  0  0  0  0  0  0
   -5.0968    0.6298  -18.6291 F   0  0  0  0  0  0  0  0  0  0  0  0
   -8.8668   -2.0197  -23.9946 C   0  0  0  0  0  0  0  0  0  0  0  0
  -10.2979   -1.8290  -23.5880 C   0  0  0  0  0  0  0  0  0  0  0  0
  -11.1144   -3.0060  -23.1430 C   0  0  0  0  0  0  0  0  0  0  0  0
  -12.5456   -2.8153  -22.7364 N   0  0  0  0  0  0  0  0  0  0  0  0
  -13.1603   -1.4477  -22.7748 C   0  0  0  0  0  0  0  0  0  0  0  0
  -12.3439   -0.2706  -23.2198 C   0  0  0  0  0  0  0  0  0  0  0  0
  -12.9587    1.0971  -23.2582 C   0  0  0  0  0  0  0  0  0  0  0  0
  -12.1423    2.2741  -23.7032 C   0  0  0  0  0  0  0  0  0  0  0  0
  -10.7111    2.0834  -24.1098 C   0  0  0  0  0  0  0  0  0  0  0  0
  -10.0963    0.7158  -24.0714 C   0  0  0  0  0  0  0  0  0  0  0  0
  -10.9127   -0.4612  -23.6264 C   0  0  0  0  0  0  0  0  0  0  0  0
  1  2  2  0  0  0
  2 13  1  0  0  0
 13 14  1  0  0  0
 14 15  2  0  0  0
 15 16  1  0  0  0
 16 17  2  0  0  0
 17 18  1  0  0  0
 18 19  2  0  0  0
 19 20  1  0  0  0
 20 21  2  0  0  0
 21 22  1  0  0  0
 22 23  2  0  0  0
  2  3  1  0  0  0
  3  4  1  0  0  0
  4  5  1  0  0  0
  5  6  1  0  0  0
  6  9  1  0  0  0
  9 10  1  0  0  0
  9 11  1  0  0  0
  9 12  1  0  0  0
  6  7  1  0  0  0
  7  8  1  0  0  0
 23 14  1  0  0  0
  8  3  1  0  0  0
 23 18  1  0  0  0
M  END
> <minimizedAffinity>
-6.83106

> <CNNscore>
0.3252738118

> <CNNaffinity>
4.9252204895

> <CNN_VS>
1.6020452976

> <CNNaffinity_variance>
0.3913990855

$$$$



 23 25  0  0  0  0  0  0  0  0999 V2000
   -8.4913   -0.3183  -21.3217 O   0  0  0  0  0  0  0  0  0  0  0  0
   -7.7484   -1.5982  -21.5665 C   0  0  0  0  0  0  0  0  0  0  0  0
   -8.2220   -2.5497  -22.6249 N   0  0  0  0  0  0  0  0  0  0  0  0
   -7.4791   -3.8295  -22.8698 C   0  0  0  0  0  0  0  0  0  0  0  0
   -7.9528   -4.7810  -23.9282 C   0  0  0  0  0  0  0  0  0  0  0  0
   -9.1694   -4.4526  -24.7419 C   0  0  0  0  0  0  0  0  0  0  0  0
   -9.9124   -3.1727  -24.4971 C   0  0  0  0  0  0  0  0  0  0  0  0
   -9.4387   -2.2212  -23.4386 C   0  0  0  0  0  0  0  0  0  0  0  0
   -9.6431   -5.4040  -25.8004 C   0  0  0  0  0  0  0  0  0  0  0  0
  -10.1167   -6.3555  -26.8588 F   0  0  0  0  0  0  0  0  0  0  0  0
  -11.0650   -5.0397  -25.4915 F   0  0  0  0  0  0  0  0  0  0  0  0
   -8.2211   -5.7684  -26.1092 F   0  0  0  0  0  0  0  0  0  0  0  0
   -6.5318   -1.9266  -20.7528 C   0  0  0  0  0  0  0  0  0  0  0  0
   -5.5801   -0.8381  -20.3538 C   0  0  0  0  0  0  0  0  0  0  0  0
   -5.5430   -0.3577  -18.9333 C   0  0  0  0  0  0  0  0  0  0  0  0
   -4.5912    0.7309  -18.5343 N   0  0  0  0  0  0  0  0  0  0  0  0
   -3.6766    1.3391  -19.5558 C   0  0  0  0  0  0  0  0  0  0  0  0
   -3.7137    0.8588  -20.9764 C   0  0  0  0  0  0  0  0  0  0  0  0
   -2.7990    1.4670  -21.9979 C   0  0  0  0  0  0  0  0  0  0  0  0
   -2.8361    0.9866  -23.4183 C   0  0  0  0  0  0  0  0  0  0  0  0
   -3.7879   -0.1019  -23.8174 C   0  0  0  0  0  0  0  0  0  0  0  0
   -4.7025   -0.7102  -22.7959 C   0  0  0  0  0  0  0  0  0  0  0  0
   -4.6654   -0.2298  -21.3754 C   0  0  0  0  0  0  0  0  0  0  0  0
  1  2  2  0  0  0
  2 13  1  0  0  0
 13 14  1  0  0  0
 14 15  2  0  0  0
 15 16  1  0  0  0
 16 17  2  0  0  0
 17 18  1  0  0  0
 18 19  2  0  0  0
 19 20  1  0  0  0
 20 21  2  0  0  0
 21 22  1  0  0  0
 22 23  2  0  0  0
  2  3  1  0  0  0
  3  4  1  0  0  0
  4  5  1  0  0  0
  5  6  1  0  0  0
  6  9  1  0  0  0
  9 10  1  0  0  0
  9 11  1  0  0  0
  9 12  1  0  0  0
  6  7  1  0  0  0
  7  8  1  0  0  0
 23 14  1  0  0  0
  8  3  1  0  0  0
 23 18  1  0  0  0
M  END
> <minimizedAffinity>
-6.45651

> <CNNscore>
0.3230615258

> <CNNaffinity>
4.7748456001

> <CNN_VS>
1.5425689220

> <CNNaffinity_variance>
0.1809273362

$$$$



 23 25  0  0  0  0  0  0  0  0999 V2000
   -7.5171   -1.1616  -20.0892 O   0  0  0  0  0  0  0  0  0  0  0  0
   -7.1257   -0.0892  -21.0623 C   0  0  0  0  0  0  0  0  0  0  0  0
   -5.8532    0.6789  -20.8601 N   0  0  0  0  0  0  0  0  0  0  0  0
   -5.4618    1.7513  -21.8331 C   0  0  0  0  0  0  0  0  0  0  0  0
   -4.1893    2.5194  -21.6309 C   0  0  0  0  0  0  0  0  0  0  0  0
   -3.3083    2.2151  -20.4557 C   0  0  0  0  0  0  0  0  0  0  0  0
   -3.6997    1.1427  -19.4826 C   0  0  0  0  0  0  0  0  0  0  0  0
   -4.9722    0.3746  -19.6848 C   0  0  0  0  0  0  0  0  0  0  0  0
   -2.0358    2.9832  -20.2535 C   0  0  0  0  0  0  0  0  0  0  0  0
   -0.7634    3.7513  -20.0513 F   0  0  0  0  0  0  0  0  0  0  0  0
   -2.5680    4.0912  -21.1132 F   0  0  0  0  0  0  0  0  0  0  0  0
   -1.5036    1.8752  -19.3938 F   0  0  0  0  0  0  0  0  0  0  0  0
   -8.0067    0.2151  -22.2375 C   0  0  0  0  0  0  0  0  0  0  0  0
   -9.1161   -0.7247  -22.6064 C   0  0  0  0  0  0  0  0  0  0  0  0
   -8.8618   -2.2020  -22.6572 C   0  0  0  0  0  0  0  0  0  0  0  0
   -9.9712   -3.1418  -23.0261 N   0  0  0  0  0  0  0  0  0  0  0  0
  -11.3349   -2.6042  -23.3442 C   0  0  0  0  0  0  0  0  0  0  0  0
  -11.5893   -1.1267  -23.2934 C   0  0  0  0  0  0  0  0  0  0  0  0
  -12.9530   -0.5891  -23.6114 C   0  0  0  0  0  0  0  0  0  0  0  0
  -13.2073    0.8883  -23.5606 C   0  0  0  0  0  0  0  0  0  0  0  0
  -12.0979    1.8280  -23.1917 C   0  0  0  0  0  0  0  0  0  0  0  0
  -10.7342    1.2904  -22.8736 C   0  0  0  0  0  0  0  0  0  0  0  0
  -10.4799   -0.1870  -22.9245 C   0  0  0  0  0  0  0  0  0  0  0  0
  1  2  2  0  0  0
  2 13  1  0  0  0
 13 14  1  0  0  0
 14 15  2  0  0  0
 15 16  1  0  0  0
 16 17  2  0  0  0
 17 18  1  0  0  0
 18 19  2  0  0  0
 19 20  1  0  0  0
 20 21  2  0  0  0
 21 22  1  0  0  0
 22 23  2  0  0  0
  2  3  1  0  0  0
  3  4  1  0  0  0
  4  5  1  0  0  0
  5  6  1  0  0  0
  6  9  1  0  0  0
  9 10  1  0  0  0
  9 11  1  0  0  0
  9 12  1  0  0  0
  6  7  1  0  0  0
  7  8  1  0  0  0
 23 14  1  0  0  0
  8  3  1  0  0  0
 23 18  1  0  0  0
M  END
> <minimizedAffinity>
-6.87651

> <CNNscore>
0.3136149347

> <CNNaffinity>
4.6252832413

> <CNN_VS>
1.4505579472

> <CNNaffinity_variance>
0.2652458549

$$$$
