


 33 37  0  0  0  0  0  0  0  0999 V2000
   -8.1043   -0.9748  -23.1712 N   0  0  0  0  0  0  0  0  0  0  0  0
   -8.3187    0.4851  -23.4406 C   0  0  0  0  0  0  0  0  0  0  0  0
   -9.7114    1.0363  -23.5212 C   0  0  0  0  0  0  0  0  0  0  0  0
  -11.0383    1.7274  -23.6290 C   0  0  0  0  0  0  0  0  0  0  0  0
  -12.2257    1.4782  -23.5633 O   0  0  0  0  0  0  0  0  0  0  0  0
  -10.7835    3.1797  -23.9046 N   0  0  0  0  0  0  0  0  0  0  0  0
   -9.2991    3.3862  -23.9671 C   0  0  0  0  0  0  0  0  0  0  0  0
   -8.6366    2.0615  -23.7301 C   0  0  0  0  0  0  0  0  0  0  0  0
   -7.1585    1.8067  -23.7063 C   0  0  0  0  0  0  0  0  0  0  0  0
  -10.8898    0.1275  -23.3324 C   0  0  0  0  0  0  0  0  0  0  0  0
  -12.2825    0.6787  -23.4130 C   0  0  0  0  0  0  0  0  0  0  0  0
  -13.4608   -0.2300  -23.2241 C   0  0  0  0  0  0  0  0  0  0  0  0
  -13.2464   -1.6900  -22.9547 C   0  0  0  0  0  0  0  0  0  0  0  0
  -11.8537   -2.2412  -22.8741 C   0  0  0  0  0  0  0  0  0  0  0  0
  -10.6754   -1.3324  -23.0629 C   0  0  0  0  0  0  0  0  0  0  0  0
   -9.2826   -1.8836  -22.9823 C   0  0  0  0  0  0  0  0  0  0  0  0
   -9.0682   -3.3435  -22.7129 O   0  0  0  0  0  0  0  0  0  0  0  0
  -11.8295    4.2395  -24.0858 C   0  0  0  0  0  0  0  0  0  0  0  0
  -12.5880    4.7555  -22.8990 C   0  0  0  0  0  0  0  0  0  0  0  0
  -13.6340    5.8152  -23.0803 N   0  0  0  0  0  0  0  0  0  0  0  0
  -13.9215    6.3590  -24.4483 C   0  0  0  0  0  0  0  0  0  0  0  0
  -13.1630    5.8430  -25.6352 C   0  0  0  0  0  0  0  0  0  0  0  0
  -13.4506    6.3868  -27.0033 C   0  0  0  0  0  0  0  0  0  0  0  0
  -12.6921    5.8707  -28.1901 C   0  0  0  0  0  0  0  0  0  0  0  0
  -11.6461    4.8110  -28.0088 C   0  0  0  0  0  0  0  0  0  0  0  0
  -11.3586    4.2672  -26.6407 C   0  0  0  0  0  0  0  0  0  0  0  0
  -12.1171    4.7832  -25.4539 C   0  0  0  0  0  0  0  0  0  0  0  0
   -6.7115   -1.5260  -23.0906 C   0  0  0  0  0  0  0  0  0  0  0  0
   -5.4190   -1.5865  -19.3388 C   0  0  0  0  0  0  0  0  0  0  0  0
   -5.9506   -1.0800  -20.6468 N   0  0  0  0  0  0  0  0  0  0  0  0
   -6.1800   -2.0325  -21.7826 C   0  0  0  0  0  0  0  0  0  0  0  0
   -5.8777   -3.4917  -21.6104 O   0  0  0  0  0  0  0  0  0  0  0  0
   -6.1490   -0.1223  -20.7598 H   0  0  0  0  0  0  0  0  0  0  0  0
 29 30  1  0  0  0
 30 31  1  0  0  0
 31 32  2  0  0  0
 31 28  1  0  0  0
 28  1  1  0  0  0
  1  2  1  0  0  0
  3  2  1  0  0  0
  3  4  1  0  0  0
  4  5  2  0  0  0
  4  6  1  0  0  0
  6 18  1  0  0  0
 18 19  2  0  0  0
 19 20  1  0  0  0
 20 21  2  0  0  0
 21 22  1  0  0  0
 22 23  2  0  0  0
 23 24  1  0  0  0
 24 25  2  0  0  0
 25 26  1  0  0  0
 26 27  2  0  0  0
  6  7  1  0  0  0
  7  8  1  0  0  0
  8  9  1  0  0  0
  3 10  1  0  0  0
 10 11  2  0  0  0
 11 12  1  0  0  0
 12 13  2  0  0  0
 13 14  1  0  0  0
 14 15  2  0  0  0
 15 16  1  0  0  0
 16 17  2  0  0  0
 16  1  1  0  0  0
  8  3  1  0  0  0
 15 10  1  0  0  0
 27 18  1  0  0  0
 27 22  1  0  0  0
 30 33  1  0  0  0
M  END
> <minimizedAffinity>
-7.55439

> <CNNscore>
0.6197842360

> <CNNaffinity>
6.1462569237

> <CNN_VS>
3.8093531132

> <CNNaffinity_variance>
0.0585969910

$$$$



 33 37  0  0  0  0  0  0  0  0999 V2000
  -10.9173    2.1272  -24.0490 N   0  0  0  0  0  0  0  0  0  0  0  0
   -9.7673    1.1937  -24.2859 C   0  0  0  0  0  0  0  0  0  0  0  0
   -9.9300   -0.2759  -24.0336 C   0  0  0  0  0  0  0  0  0  0  0  0
   -9.9432   -1.7615  -23.8266 C   0  0  0  0  0  0  0  0  0  0  0  0
  -10.6965   -2.6446  -23.4674 O   0  0  0  0  0  0  0  0  0  0  0  0
   -8.5863   -2.2914  -24.1842 N   0  0  0  0  0  0  0  0  0  0  0  0
   -7.7344   -1.1334  -24.6122 C   0  0  0  0  0  0  0  0  0  0  0  0
   -8.5649    0.1123  -24.5192 C   0  0  0  0  0  0  0  0  0  0  0  0
   -8.1101    1.5021  -24.8530 C   0  0  0  0  0  0  0  0  0  0  0  0
  -11.2428   -0.8121  -23.5445 C   0  0  0  0  0  0  0  0  0  0  0  0
  -11.4055   -2.2817  -23.2923 C   0  0  0  0  0  0  0  0  0  0  0  0
  -12.7183   -2.8179  -22.8032 C   0  0  0  0  0  0  0  0  0  0  0  0
  -13.8682   -1.8844  -22.5663 C   0  0  0  0  0  0  0  0  0  0  0  0
  -13.7055   -0.4147  -22.8185 C   0  0  0  0  0  0  0  0  0  0  0  0
  -12.3928    0.1214  -23.3076 C   0  0  0  0  0  0  0  0  0  0  0  0
  -12.2300    1.5911  -23.5599 C   0  0  0  0  0  0  0  0  0  0  0  0
  -13.3800    2.5246  -23.3230 O   0  0  0  0  0  0  0  0  0  0  0  0
   -8.1567   -3.7273  -24.1242 C   0  0  0  0  0  0  0  0  0  0  0  0
   -7.4310   -4.2433  -22.9170 C   0  0  0  0  0  0  0  0  0  0  0  0
   -7.0014   -5.6792  -22.8571 N   0  0  0  0  0  0  0  0  0  0  0  0
   -7.2974   -6.5992  -24.0043 C   0  0  0  0  0  0  0  0  0  0  0  0
   -8.0231   -6.0832  -25.2114 C   0  0  0  0  0  0  0  0  0  0  0  0
   -8.3192   -7.0032  -26.3586 C   0  0  0  0  0  0  0  0  0  0  0  0
   -9.0449   -6.4871  -27.5657 C   0  0  0  0  0  0  0  0  0  0  0  0
   -9.4745   -5.0512  -27.6257 C   0  0  0  0  0  0  0  0  0  0  0  0
   -9.1784   -4.1313  -26.4785 C   0  0  0  0  0  0  0  0  0  0  0  0
   -8.4527   -4.6473  -25.2714 C   0  0  0  0  0  0  0  0  0  0  0  0
  -10.7545    3.5969  -24.3013 C   0  0  0  0  0  0  0  0  0  0  0  0
  -13.7561    6.1630  -23.9066 C   0  0  0  0  0  0  0  0  0  0  0  0
  -12.5587    5.3212  -23.5788 N   0  0  0  0  0  0  0  0  0  0  0  0
  -11.9519    4.4387  -24.6291 C   0  0  0  0  0  0  0  0  0  0  0  0
  -12.5427    4.3981  -26.0074 O   0  0  0  0  0  0  0  0  0  0  0  0
  -12.1710    5.3478  -22.6743 H   0  0  0  0  0  0  0  0  0  0  0  0
 29 30  1  0  0  0
 30 31  1  0  0  0
 31 32  2  0  0  0
 31 28  1  0  0  0
 28  1  1  0  0  0
  1  2  1  0  0  0
  3  2  1  0  0  0
  3  4  1  0  0  0
  4  5  2  0  0  0
  4  6  1  0  0  0
  6 18  1  0  0  0
 18 19  2  0  0  0
 19 20  1  0  0  0
 20 21  2  0  0  0
 21 22  1  0  0  0
 22 23  2  0  0  0
 23 24  1  0  0  0
 24 25  2  0  0  0
 25 26  1  0  0  0
 26 27  2  0  0  0
  6  7  1  0  0  0
  7  8  1  0  0  0
  8  9  1  0  0  0
  3 10  1  0  0  0
 10 11  2  0  0  0
 11 12  1  0  0  0
 12 13  2  0  0  0
 13 14  1  0  0  0
 14 15  2  0  0  0
 15 16  1  0  0  0
 16 17  2  0  0  0
 16  1  1  0  0  0
  8  3  1  0  0  0
 15 10  1  0  0  0
 27 18  1  0  0  0
 27 22  1  0  0  0
 30 33  1  0  0  0
M  END
> <minimizedAffinity>
-7.78729

> <CNNscore>
0.6183286309

> <CNNaffinity>
6.4289140701

> <CNN_VS>
3.9751815796

> <CNNaffinity_variance>
0.0358731896

$$$$



 33 37  0  0  0  0  0  0  0  0999 V2000
   -9.0247   -4.9372  -24.7945 N   0  0  0  0  0  0  0  0  0  0  0  0
   -8.7854   -3.5871  -24.1861 C   0  0  0  0  0  0  0  0  0  0  0  0
   -7.8032   -3.4341  -23.0628 C   0  0  0  0  0  0  0  0  0  0  0  0
   -6.8567   -3.1282  -21.9401 C   0  0  0  0  0  0  0  0  0  0  0  0
   -6.0654   -3.6915  -21.2101 O   0  0  0  0  0  0  0  0  0  0  0  0
   -6.9369   -1.6580  -21.6537 N   0  0  0  0  0  0  0  0  0  0  0  0
   -7.9329   -1.0552  -22.5995 C   0  0  0  0  0  0  0  0  0  0  0  0
   -8.4683   -2.1529  -23.4704 C   0  0  0  0  0  0  0  0  0  0  0  0
   -9.4895   -1.9968  -24.5580 C   0  0  0  0  0  0  0  0  0  0  0  0
   -7.0602   -4.6312  -22.5479 C   0  0  0  0  0  0  0  0  0  0  0  0
   -6.0780   -4.4782  -21.4246 C   0  0  0  0  0  0  0  0  0  0  0  0
   -5.3351   -5.6752  -20.9097 C   0  0  0  0  0  0  0  0  0  0  0  0
   -5.5744   -7.0252  -21.5181 C   0  0  0  0  0  0  0  0  0  0  0  0
   -6.5566   -7.1783  -22.6414 C   0  0  0  0  0  0  0  0  0  0  0  0
   -7.2995   -5.9812  -23.1563 C   0  0  0  0  0  0  0  0  0  0  0  0
   -8.2818   -6.1342  -24.2796 C   0  0  0  0  0  0  0  0  0  0  0  0
   -8.5211   -7.4842  -24.8880 O   0  0  0  0  0  0  0  0  0  0  0  0
   -6.1579   -0.9201  -20.6056 C   0  0  0  0  0  0  0  0  0  0  0  0
   -6.5955   -0.9702  -19.1717 C   0  0  0  0  0  0  0  0  0  0  0  0
   -5.8164   -0.2324  -18.1235 N   0  0  0  0  0  0  0  0  0  0  0  0
   -4.5998    0.5556  -18.5093 C   0  0  0  0  0  0  0  0  0  0  0  0
   -4.1622    0.6057  -19.9431 C   0  0  0  0  0  0  0  0  0  0  0  0
   -2.9454    1.3937  -20.3289 C   0  0  0  0  0  0  0  0  0  0  0  0
   -2.5079    1.4438  -21.7628 C   0  0  0  0  0  0  0  0  0  0  0  0
   -3.2870    0.7059  -22.8109 C   0  0  0  0  0  0  0  0  0  0  0  0
   -4.5036   -0.0821  -22.4252 C   0  0  0  0  0  0  0  0  0  0  0  0
   -4.9412   -0.1322  -20.9913 C   0  0  0  0  0  0  0  0  0  0  0  0
  -10.0069   -5.0901  -25.9179 C   0  0  0  0  0  0  0  0  0  0  0  0
   -8.2579   -7.1180  -28.8468 C   0  0  0  0  0  0  0  0  0  0  0  0
   -8.7374   -6.7343  -27.4783 N   0  0  0  0  0  0  0  0  0  0  0  0
   -9.5274   -5.4738  -27.2864 C   0  0  0  0  0  0  0  0  0  0  0  0
   -9.8379   -4.5968  -28.4631 O   0  0  0  0  0  0  0  0  0  0  0  0
   -8.5336   -7.3099  -26.7060 H   0  0  0  0  0  0  0  0  0  0  0  0
 29 30  1  0  0  0
 30 31  1  0  0  0
 31 32  2  0  0  0
 31 28  1  0  0  0
 28  1  1  0  0  0
  1  2  1  0  0  0
  3  2  1  0  0  0
  3  4  1  0  0  0
  4  5  2  0  0  0
  4  6  1  0  0  0
  6 18  1  0  0  0
 18 19  2  0  0  0
 19 20  1  0  0  0
 20 21  2  0  0  0
 21 22  1  0  0  0
 22 23  2  0  0  0
 23 24  1  0  0  0
 24 25  2  0  0  0
 25 26  1  0  0  0
 26 27  2  0  0  0
  6  7  1  0  0  0
  7  8  1  0  0  0
  8  9  1  0  0  0
  3 10  1  0  0  0
 10 11  2  0  0  0
 11 12  1  0  0  0
 12 13  2  0  0  0
 13 14  1  0  0  0
 14 15  2  0  0  0
 15 16  1  0  0  0
 16 17  2  0  0  0
 16  1  1  0  0  0
  8  3  1  0  0  0
 15 10  1  0  0  0
 27 18  1  0  0  0
 27 22  1  0  0  0
 30 33  1  0  0  0
M  END
> <minimizedAffinity>
-7.87963

> <CNNscore>
0.5606043935

> <CNNaffinity>
6.1435475349

> <CNN_VS>
3.4440996647

> <CNNaffinity_variance>
0.0397464894

$$$$



 33 37  0  0  0  0  0  0  0  0999 V2000
   -5.6887   -6.1504  -23.8459 N   0  0  0  0  0  0  0  0  0  0  0  0
   -6.2090   -4.8892  -23.2223 C   0  0  0  0  0  0  0  0  0  0  0  0
   -7.2779   -4.0962  -23.9139 C   0  0  0  0  0  0  0  0  0  0  0  0
   -8.3393   -3.2031  -24.4848 C   0  0  0  0  0  0  0  0  0  0  0  0
   -9.0647   -3.1227  -25.4562 O   0  0  0  0  0  0  0  0  0  0  0  0
   -8.5455   -2.0617  -23.5337 N   0  0  0  0  0  0  0  0  0  0  0  0
   -7.6116   -2.2493  -22.3750 C   0  0  0  0  0  0  0  0  0  0  0  0
   -6.8282   -3.5067  -22.6100 C   0  0  0  0  0  0  0  0  0  0  0  0
   -5.7791   -4.0748  -21.7007 C   0  0  0  0  0  0  0  0  0  0  0  0
   -7.8267   -4.5643  -25.2292 C   0  0  0  0  0  0  0  0  0  0  0  0
   -8.8956   -3.7713  -25.9208 C   0  0  0  0  0  0  0  0  0  0  0  0
   -9.4443   -4.2394  -27.2360 C   0  0  0  0  0  0  0  0  0  0  0  0
   -8.9240   -5.5005  -27.8596 C   0  0  0  0  0  0  0  0  0  0  0  0
   -7.8551   -6.2935  -27.1679 C   0  0  0  0  0  0  0  0  0  0  0  0
   -7.3064   -5.8254  -25.8528 C   0  0  0  0  0  0  0  0  0  0  0  0
   -6.2374   -6.6185  -25.1611 C   0  0  0  0  0  0  0  0  0  0  0  0
   -5.7171   -7.8796  -25.7846 O   0  0  0  0  0  0  0  0  0  0  0  0
   -9.5154   -0.9311  -23.7103 C   0  0  0  0  0  0  0  0  0  0  0  0
   -9.0392    0.3904  -24.2365 C   0  0  0  0  0  0  0  0  0  0  0  0
  -10.0091    1.5209  -24.4131 N   0  0  0  0  0  0  0  0  0  0  0  0
  -11.4552    1.3300  -24.0635 C   0  0  0  0  0  0  0  0  0  0  0  0
  -11.9314    0.0085  -23.5373 C   0  0  0  0  0  0  0  0  0  0  0  0
  -13.3776   -0.1825  -23.1877 C   0  0  0  0  0  0  0  0  0  0  0  0
  -13.8538   -1.5040  -22.6615 C   0  0  0  0  0  0  0  0  0  0  0  0
  -12.8839   -2.6346  -22.4849 C   0  0  0  0  0  0  0  0  0  0  0  0
  -11.4378   -2.4436  -22.8345 C   0  0  0  0  0  0  0  0  0  0  0  0
  -10.9615   -1.1221  -23.3607 C   0  0  0  0  0  0  0  0  0  0  0  0
   -4.6197   -6.9434  -23.1542 C   0  0  0  0  0  0  0  0  0  0  0  0
   -0.9918   -8.3255  -23.9777 C   0  0  0  0  0  0  0  0  0  0  0  0
   -2.3477   -8.1881  -23.3511 N   0  0  0  0  0  0  0  0  0  0  0  0
   -3.2638   -7.0808  -23.7808 C   0  0  0  0  0  0  0  0  0  0  0  0
   -2.8240   -6.1108  -24.8372 O   0  0  0  0  0  0  0  0  0  0  0  0
   -2.6364   -8.8247  -22.6578 H   0  0  0  0  0  0  0  0  0  0  0  0
 29 30  1  0  0  0
 30 31  1  0  0  0
 31 32  2  0  0  0
 31 28  1  0  0  0
 28  1  1  0  0  0
  1  2  1  0  0  0
  3  2  1  0  0  0
  3  4  1  0  0  0
  4  5  2  0  0  0
  4  6  1  0  0  0
  6 18  1  0  0  0
 18 19  2  0  0  0
 19 20  1  0  0  0
 20 21  2  0  0  0
 21 22  1  0  0  0
 22 23  2  0  0  0
 23 24  1  0  0  0
 24 25  2  0  0  0
 25 26  1  0  0  0
 26 27  2  0  0  0
  6  7  1  0  0  0
  7  8  1  0  0  0
  8  9  1  0  0  0
  3 10  1  0  0  0
 10 11  2  0  0  0
 11 12  1  0  0  0
 12 13  2  0  0  0
 13 14  1  0  0  0
 14 15  2  0  0  0
 15 16  1  0  0  0
 16 17  2  0  0  0
 16  1  1  0  0  0
  8  3  1  0  0  0
 15 10  1  0  0  0
 27 18  1  0  0  0
 27 22  1  0  0  0
 30 33  1  0  0  0
M  END
> <minimizedAffinity>
-7.49305

> <CNNscore>
0.4490976036

> <CNNaffinity>
6.1269960403

> <CNN_VS>
2.7516193390

> <CNNaffinity_variance>
0.1169018522

$$$$



 33 37  0  0  0  0  0  0  0  0999 V2000
  -11.3864    2.3868  -24.0642 N   0  0  0  0  0  0  0  0  0  0  0  0
  -10.0889    1.6483  -24.2093 C   0  0  0  0  0  0  0  0  0  0  0  0
  -10.0202    0.1836  -23.8933 C   0  0  0  0  0  0  0  0  0  0  0  0
   -9.7995   -1.2738  -23.6157 C   0  0  0  0  0  0  0  0  0  0  0  0
  -10.4140   -2.2543  -23.2450 O   0  0  0  0  0  0  0  0  0  0  0  0
   -8.3585   -1.5854  -23.8922 N   0  0  0  0  0  0  0  0  0  0  0  0
   -7.6886   -0.3204  -24.3408 C   0  0  0  0  0  0  0  0  0  0  0  0
   -8.7156    0.7728  -24.3414 C   0  0  0  0  0  0  0  0  0  0  0  0
   -8.4795    2.2041  -24.7233 C   0  0  0  0  0  0  0  0  0  0  0  0
  -11.2491   -0.5427  -23.4323 C   0  0  0  0  0  0  0  0  0  0  0  0
  -11.1805   -2.0074  -23.1164 C   0  0  0  0  0  0  0  0  0  0  0  0
  -12.4093   -2.7335  -22.6554 C   0  0  0  0  0  0  0  0  0  0  0  0
  -13.7068   -1.9950  -22.5104 C   0  0  0  0  0  0  0  0  0  0  0  0
  -13.7755   -0.5303  -22.8263 C   0  0  0  0  0  0  0  0  0  0  0  0
  -12.5466    0.1959  -23.2873 C   0  0  0  0  0  0  0  0  0  0  0  0
  -12.6153    1.6607  -23.6033 C   0  0  0  0  0  0  0  0  0  0  0  0
  -13.9128    2.3992  -23.4583 O   0  0  0  0  0  0  0  0  0  0  0  0
   -7.7025   -2.9264  -23.7458 C   0  0  0  0  0  0  0  0  0  0  0  0
   -6.9208   -3.2477  -22.5066 C   0  0  0  0  0  0  0  0  0  0  0  0
   -6.2649   -4.5887  -22.3602 N   0  0  0  0  0  0  0  0  0  0  0  0
   -6.3906   -5.6084  -23.4531 C   0  0  0  0  0  0  0  0  0  0  0  0
   -7.1723   -5.2870  -24.6924 C   0  0  0  0  0  0  0  0  0  0  0  0
   -7.2981   -6.3068  -25.7853 C   0  0  0  0  0  0  0  0  0  0  0  0
   -8.0798   -5.9854  -27.0245 C   0  0  0  0  0  0  0  0  0  0  0  0
   -8.7357   -4.6443  -27.1709 C   0  0  0  0  0  0  0  0  0  0  0  0
   -8.6100   -3.6247  -26.0780 C   0  0  0  0  0  0  0  0  0  0  0  0
   -7.8283   -3.9460  -24.8387 C   0  0  0  0  0  0  0  0  0  0  0  0
  -11.4550    3.8516  -24.3802 C   0  0  0  0  0  0  0  0  0  0  0  0
   -8.3490    5.8670  -22.9517 C   0  0  0  0  0  0  0  0  0  0  0  0
   -9.5922    5.0294  -23.0045 N   0  0  0  0  0  0  0  0  0  0  0  0
  -10.2118    4.6893  -24.3274 C   0  0  0  0  0  0  0  0  0  0  0  0
   -9.5882    5.1868  -25.5978 O   0  0  0  0  0  0  0  0  0  0  0  0
  -10.0015    4.7028  -22.1707 H   0  0  0  0  0  0  0  0  0  0  0  0
 29 30  1  0  0  0
 30 31  1  0  0  0
 31 32  2  0  0  0
 31 28  1  0  0  0
 28  1  1  0  0  0
  1  2  1  0  0  0
  3  2  1  0  0  0
  3  4  1  0  0  0
  4  5  2  0  0  0
  4  6  1  0  0  0
  6 18  1  0  0  0
 18 19  2  0  0  0
 19 20  1  0  0  0
 20 21  2  0  0  0
 21 22  1  0  0  0
 22 23  2  0  0  0
 23 24  1  0  0  0
 24 25  2  0  0  0
 25 26  1  0  0  0
 26 27  2  0  0  0
  6  7  1  0  0  0
  7  8  1  0  0  0
  8  9  1  0  0  0
  3 10  1  0  0  0
 10 11  2  0  0  0
 11 12  1  0  0  0
 12 13  2  0  0  0
 13 14  1  0  0  0
 14 15  2  0  0  0
 15 16  1  0  0  0
 16 17  2  0  0  0
 16  1  1  0  0  0
  8  3  1  0  0  0
 15 10  1  0  0  0
 27 18  1  0  0  0
 27 22  1  0  0  0
 30 33  1  0  0  0
M  END
> <minimizedAffinity>
-7.69103

> <CNNscore>
0.3953405917

> <CNNaffinity>
6.0902032852

> <CNN_VS>
2.4077045918

> <CNNaffinity_variance>
0.1469082534

$$$$



 33 37  0  0  0  0  0  0  0  0999 V2000
   -5.5481   -6.4921  -24.4425 N   0  0  0  0  0  0  0  0  0  0  0  0
   -6.2366   -5.4475  -23.6150 C   0  0  0  0  0  0  0  0  0  0  0  0
   -7.5038   -4.8147  -24.1087 C   0  0  0  0  0  0  0  0  0  0  0  0
   -8.7707   -4.0975  -24.4699 C   0  0  0  0  0  0  0  0  0  0  0  0
   -9.5931   -4.0534  -25.3633 O   0  0  0  0  0  0  0  0  0  0  0  0
   -9.0962   -3.1433  -23.3592 N   0  0  0  0  0  0  0  0  0  0  0  0
   -8.0304   -3.2709  -22.3114 C   0  0  0  0  0  0  0  0  0  0  0  0
   -7.0463   -4.3038  -22.7746 C   0  0  0  0  0  0  0  0  0  0  0  0
   -5.8199   -4.7480  -22.0338 C   0  0  0  0  0  0  0  0  0  0  0  0
   -8.0826   -5.2266  -25.4299 C   0  0  0  0  0  0  0  0  0  0  0  0
   -9.3498   -4.5938  -25.9235 C   0  0  0  0  0  0  0  0  0  0  0  0
   -9.9285   -5.0056  -27.2446 C   0  0  0  0  0  0  0  0  0  0  0  0
   -9.2401   -6.0503  -28.0721 C   0  0  0  0  0  0  0  0  0  0  0  0
   -7.9729   -6.6831  -27.5784 C   0  0  0  0  0  0  0  0  0  0  0  0
   -7.3941   -6.2712  -26.2573 C   0  0  0  0  0  0  0  0  0  0  0  0
   -6.1269   -6.9040  -25.7636 C   0  0  0  0  0  0  0  0  0  0  0  0
   -5.4384   -7.9487  -26.5911 O   0  0  0  0  0  0  0  0  0  0  0  0
  -10.2796   -2.2232  -23.3056 C   0  0  0  0  0  0  0  0  0  0  0  0
  -11.6055   -2.7339  -22.8249 C   0  0  0  0  0  0  0  0  0  0  0  0
  -12.7890   -1.8138  -22.7713 N   0  0  0  0  0  0  0  0  0  0  0  0
  -12.6465   -0.3830  -23.1986 C   0  0  0  0  0  0  0  0  0  0  0  0
  -11.3205    0.1276  -23.6794 C   0  0  0  0  0  0  0  0  0  0  0  0
  -11.1781    1.5585  -24.1066 C   0  0  0  0  0  0  0  0  0  0  0  0
   -9.8521    2.0691  -24.5874 C   0  0  0  0  0  0  0  0  0  0  0  0
   -8.6687    1.1490  -24.6410 C   0  0  0  0  0  0  0  0  0  0  0  0
   -8.8112   -0.2818  -24.2137 C   0  0  0  0  0  0  0  0  0  0  0  0
  -10.1371   -0.7925  -23.7329 C   0  0  0  0  0  0  0  0  0  0  0  0
   -4.2809   -7.1249  -23.9488 C   0  0  0  0  0  0  0  0  0  0  0  0
   -0.4069   -7.1283  -24.8101 C   0  0  0  0  0  0  0  0  0  0  0  0
   -1.7215   -7.5004  -24.1911 N   0  0  0  0  0  0  0  0  0  0  0  0
   -2.9662   -6.7528  -24.5678 C   0  0  0  0  0  0  0  0  0  0  0  0
   -2.8962   -5.6331  -25.5635 O   0  0  0  0  0  0  0  0  0  0  0  0
   -1.7675   -8.2353  -23.5377 H   0  0  0  0  0  0  0  0  0  0  0  0
 29 30  1  0  0  0
 30 31  1  0  0  0
 31 32  2  0  0  0
 31 28  1  0  0  0
 28  1  1  0  0  0
  1  2  1  0  0  0
  3  2  1  0  0  0
  3  4  1  0  0  0
  4  5  2  0  0  0
  4  6  1  0  0  0
  6 18  1  0  0  0
 18 19  2  0  0  0
 19 20  1  0  0  0
 20 21  2  0  0  0
 21 22  1  0  0  0
 22 23  2  0  0  0
 23 24  1  0  0  0
 24 25  2  0  0  0
 25 26  1  0  0  0
 26 27  2  0  0  0
  6  7  1  0  0  0
  7  8  1  0  0  0
  8  9  1  0  0  0
  3 10  1  0  0  0
 10 11  2  0  0  0
 11 12  1  0  0  0
 12 13  2  0  0  0
 13 14  1  0  0  0
 14 15  2  0  0  0
 15 16  1  0  0  0
 16 17  2  0  0  0
 16  1  1  0  0  0
  8  3  1  0  0  0
 15 10  1  0  0  0
 27 18  1  0  0  0
 27 22  1  0  0  0
 30 33  1  0  0  0
M  END
> <minimizedAffinity>
-7.66332

> <CNNscore>
0.3720287681

> <CNNaffinity>
5.8302483559

> <CNN_VS>
2.1690201759

> <CNNaffinity_variance>
0.2030791938

$$$$



 33 37  0  0  0  0  0  0  0  0999 V2000
   -7.3569   -1.2258  -22.6222 N   0  0  0  0  0  0  0  0  0  0  0  0
   -7.4305    0.1565  -23.1999 C   0  0  0  0  0  0  0  0  0  0  0  0
   -8.7491    0.7120  -23.6501 C   0  0  0  0  0  0  0  0  0  0  0  0
   -9.9898    1.3977  -24.1404 C   0  0  0  0  0  0  0  0  0  0  0  0
  -11.1817    1.1930  -24.2584 O   0  0  0  0  0  0  0  0  0  0  0  0
   -9.6026    2.7608  -24.6323 N   0  0  0  0  0  0  0  0  0  0  0  0
   -8.1224    2.9175  -24.4460 C   0  0  0  0  0  0  0  0  0  0  0  0
   -7.5950    1.6513  -23.8389 C   0  0  0  0  0  0  0  0  0  0  0  0
   -6.1646    1.3732  -23.4832 C   0  0  0  0  0  0  0  0  0  0  0  0
   -9.9942   -0.1150  -23.5226 C   0  0  0  0  0  0  0  0  0  0  0  0
  -11.3128    0.4405  -23.9728 C   0  0  0  0  0  0  0  0  0  0  0  0
  -12.5577   -0.3864  -23.8453 C   0  0  0  0  0  0  0  0  0  0  0  0
  -12.4841   -1.7688  -23.2676 C   0  0  0  0  0  0  0  0  0  0  0  0
  -11.1655   -2.3242  -22.8174 C   0  0  0  0  0  0  0  0  0  0  0  0
   -9.9205   -1.4973  -22.9449 C   0  0  0  0  0  0  0  0  0  0  0  0
   -8.6018   -2.0527  -22.4947 C   0  0  0  0  0  0  0  0  0  0  0  0
   -8.5281   -3.4350  -21.9170 O   0  0  0  0  0  0  0  0  0  0  0  0
  -10.5322    3.7870  -25.2092 C   0  0  0  0  0  0  0  0  0  0  0  0
  -10.3665    4.2338  -26.6315 C   0  0  0  0  0  0  0  0  0  0  0  0
  -11.2961    5.2600  -27.2084 N   0  0  0  0  0  0  0  0  0  0  0  0
  -12.3914    5.8393  -26.3630 C   0  0  0  0  0  0  0  0  0  0  0  0
  -12.5570    5.3924  -24.9407 C   0  0  0  0  0  0  0  0  0  0  0  0
  -13.6524    5.9718  -24.0952 C   0  0  0  0  0  0  0  0  0  0  0  0
  -13.8180    5.5249  -22.6730 C   0  0  0  0  0  0  0  0  0  0  0  0
  -12.8884    4.4987  -22.0961 C   0  0  0  0  0  0  0  0  0  0  0  0
  -11.7931    3.9194  -22.9415 C   0  0  0  0  0  0  0  0  0  0  0  0
  -11.6274    4.3663  -24.3638 C   0  0  0  0  0  0  0  0  0  0  0  0
   -6.0382   -1.7812  -22.1719 C   0  0  0  0  0  0  0  0  0  0  0  0
   -5.4547   -0.3920  -18.5005 C   0  0  0  0  0  0  0  0  0  0  0  0
   -5.8376   -0.4504  -19.9496 N   0  0  0  0  0  0  0  0  0  0  0  0
   -5.6552   -1.7227  -20.7228 C   0  0  0  0  0  0  0  0  0  0  0  0
   -5.0897   -2.9367  -20.0470 O   0  0  0  0  0  0  0  0  0  0  0  0
   -6.2088    0.3463  -20.3932 H   0  0  0  0  0  0  0  0  0  0  0  0
 29 30  1  0  0  0
 30 31  1  0  0  0
 31 32  2  0  0  0
 31 28  1  0  0  0
 28  1  1  0  0  0
  1  2  1  0  0  0
  3  2  1  0  0  0
  3  4  1  0  0  0
  4  5  2  0  0  0
  4  6  1  0  0  0
  6 18  1  0  0  0
 18 19  2  0  0  0
 19 20  1  0  0  0
 20 21  2  0  0  0
 21 22  1  0  0  0
 22 23  2  0  0  0
 23 24  1  0  0  0
 24 25  2  0  0  0
 25 26  1  0  0  0
 26 27  2  0  0  0
  6  7  1  0  0  0
  7  8  1  0  0  0
  8  9  1  0  0  0
  3 10  1  0  0  0
 10 11  2  0  0  0
 11 12  1  0  0  0
 12 13  2  0  0  0
 13 14  1  0  0  0
 14 15  2  0  0  0
 15 16  1  0  0  0
 16 17  2  0  0  0
 16  1  1  0  0  0
  8  3  1  0  0  0
 15 10  1  0  0  0
 27 18  1  0  0  0
 27 22  1  0  0  0
 30 33  1  0  0  0
M  END
> <minimizedAffinity>
-7.39423

> <CNNscore>
0.3326495886

> <CNNaffinity>
5.8932981491

> <CNN_VS>
1.9604032040

> <CNNaffinity_variance>
0.1265375465

$$$$



 33 37  0  0  0  0  0  0  0  0999 V2000
   -7.6693   -3.8097  -26.0862 N   0  0  0  0  0  0  0  0  0  0  0  0
   -7.1637   -3.8731  -24.6754 C   0  0  0  0  0  0  0  0  0  0  0  0
   -6.9614   -2.6091  -23.8936 C   0  0  0  0  0  0  0  0  0  0  0  0
   -6.7113   -1.4359  -22.9930 C   0  0  0  0  0  0  0  0  0  0  0  0
   -6.7870   -0.2232  -23.0015 O   0  0  0  0  0  0  0  0  0  0  0  0
   -6.2124   -1.9585  -21.6785 N   0  0  0  0  0  0  0  0  0  0  0  0
   -6.1541   -3.4548  -21.7667 C   0  0  0  0  0  0  0  0  0  0  0  0
   -6.6170   -3.8568  -23.1357 C   0  0  0  0  0  0  0  0  0  0  0  0
   -6.7177   -5.2603  -23.6555 C   0  0  0  0  0  0  0  0  0  0  0  0
   -7.2647   -1.2815  -24.5227 C   0  0  0  0  0  0  0  0  0  0  0  0
   -7.0624   -0.0174  -23.7409 C   0  0  0  0  0  0  0  0  0  0  0  0
   -7.3657    1.3100  -24.3700 C   0  0  0  0  0  0  0  0  0  0  0  0
   -7.8714    1.3734  -25.7807 C   0  0  0  0  0  0  0  0  0  0  0  0
   -8.0737    0.1094  -26.5625 C   0  0  0  0  0  0  0  0  0  0  0  0
   -7.7703   -1.2181  -25.9334 C   0  0  0  0  0  0  0  0  0  0  0  0
   -7.9726   -2.4823  -26.7152 C   0  0  0  0  0  0  0  0  0  0  0  0
   -8.4783   -2.4188  -28.1260 O   0  0  0  0  0  0  0  0  0  0  0  0
   -5.8376   -1.1303  -20.4854 C   0  0  0  0  0  0  0  0  0  0  0  0
   -6.6162   -1.2576  -19.2096 C   0  0  0  0  0  0  0  0  0  0  0  0
   -6.2414   -0.4294  -18.0164 N   0  0  0  0  0  0  0  0  0  0  0  0
   -5.0881    0.5261  -18.0991 C   0  0  0  0  0  0  0  0  0  0  0  0
   -4.3095    0.6533  -19.3749 C   0  0  0  0  0  0  0  0  0  0  0  0
   -3.1561    1.6089  -19.4576 C   0  0  0  0  0  0  0  0  0  0  0  0
   -2.3776    1.7361  -20.7334 C   0  0  0  0  0  0  0  0  0  0  0  0
   -2.7524    0.9079  -21.9265 C   0  0  0  0  0  0  0  0  0  0  0  0
   -3.9057   -0.0476  -21.8439 C   0  0  0  0  0  0  0  0  0  0  0  0
   -4.6843   -0.1749  -20.5681 C   0  0  0  0  0  0  0  0  0  0  0  0
   -7.8716   -5.0739  -26.8679 C   0  0  0  0  0  0  0  0  0  0  0  0
   -5.3144   -7.6448  -28.4807 C   0  0  0  0  0  0  0  0  0  0  0  0
   -6.4321   -7.0914  -27.6473 N   0  0  0  0  0  0  0  0  0  0  0  0
   -6.7539   -5.6273  -27.7013 C   0  0  0  0  0  0  0  0  0  0  0  0
   -5.9581   -4.7166  -28.5886 O   0  0  0  0  0  0  0  0  0  0  0  0
   -6.9544   -7.6891  -27.0649 H   0  0  0  0  0  0  0  0  0  0  0  0
 29 30  1  0  0  0
 30 31  1  0  0  0
 31 32  2  0  0  0
 31 28  1  0  0  0
 28  1  1  0  0  0
  1  2  1  0  0  0
  3  2  1  0  0  0
  3  4  1  0  0  0
  4  5  2  0  0  0
  4  6  1  0  0  0
  6 18  1  0  0  0
 18 19  2  0  0  0
 19 20  1  0  0  0
 20 21  2  0  0  0
 21 22  1  0  0  0
 22 23  2  0  0  0
 23 24  1  0  0  0
 24 25  2  0  0  0
 25 26  1  0  0  0
 26 27  2  0  0  0
  6  7  1  0  0  0
  7  8  1  0  0  0
  8  9  1  0  0  0
  3 10  1  0  0  0
 10 11  2  0  0  0
 11 12  1  0  0  0
 12 13  2  0  0  0
 13 14  1  0  0  0
 14 15  2  0  0  0
 15 16  1  0  0  0
 16 17  2  0  0  0
 16  1  1  0  0  0
  8  3  1  0  0  0
 15 10  1  0  0  0
 27 18  1  0  0  0
 27 22  1  0  0  0
 30 33  1  0  0  0
M  END
> <minimizedAffinity>
-7.72331

> <CNNscore>
0.3284501433

> <CNNaffinity>
5.8346815109

> <CNN_VS>
1.9164019823

> <CNNaffinity_variance>
0.1418025941

$$$$



 33 37  0  0  0  0  0  0  0  0999 V2000
   -8.2668   -3.3569  -22.9697 N   0  0  0  0  0  0  0  0  0  0  0  0
   -9.5110   -2.5711  -23.2606 C   0  0  0  0  0  0  0  0  0  0  0  0
   -9.5304   -1.0878  -23.0381 C   0  0  0  0  0  0  0  0  0  0  0  0
   -9.6988    0.3926  -22.8654 C   0  0  0  0  0  0  0  0  0  0  0  0
   -9.0663    1.3657  -22.5056 O   0  0  0  0  0  0  0  0  0  0  0  0
  -11.0971    0.7509  -23.2734 N   0  0  0  0  0  0  0  0  0  0  0  0
  -11.7929   -0.5082  -23.6983 C   0  0  0  0  0  0  0  0  0  0  0  0
  -10.8247   -1.6446  -23.5529 C   0  0  0  0  0  0  0  0  0  0  0  0
  -11.1020   -3.0848  -23.8671 C   0  0  0  0  0  0  0  0  0  0  0  0
   -8.3057   -0.3903  -22.5247 C   0  0  0  0  0  0  0  0  0  0  0  0
   -8.3252    1.0929  -22.3022 C   0  0  0  0  0  0  0  0  0  0  0  0
   -7.1005    1.7904  -21.7888 C   0  0  0  0  0  0  0  0  0  0  0  0
   -5.8563    1.0046  -21.4978 C   0  0  0  0  0  0  0  0  0  0  0  0
   -5.8369   -0.4786  -21.7203 C   0  0  0  0  0  0  0  0  0  0  0  0
   -7.0616   -1.1761  -22.2338 C   0  0  0  0  0  0  0  0  0  0  0  0
   -7.0421   -2.6594  -22.4563 C   0  0  0  0  0  0  0  0  0  0  0  0
   -5.7980   -3.4452  -22.1654 O   0  0  0  0  0  0  0  0  0  0  0  0
  -11.6946    2.1267  -23.2590 C   0  0  0  0  0  0  0  0  0  0  0  0
  -12.7707    2.4667  -22.2709 C   0  0  0  0  0  0  0  0  0  0  0  0
  -13.3682    3.8425  -22.2565 N   0  0  0  0  0  0  0  0  0  0  0  0
  -12.8896    4.8782  -23.2302 C   0  0  0  0  0  0  0  0  0  0  0  0
  -11.8135    4.5382  -24.2183 C   0  0  0  0  0  0  0  0  0  0  0  0
  -11.3349    5.5740  -25.1921 C   0  0  0  0  0  0  0  0  0  0  0  0
  -10.2588    5.2338  -26.1802 C   0  0  0  0  0  0  0  0  0  0  0  0
   -9.6613    3.8581  -26.1946 C   0  0  0  0  0  0  0  0  0  0  0  0
  -10.1399    2.8223  -25.2209 C   0  0  0  0  0  0  0  0  0  0  0  0
  -11.2160    3.1624  -24.2327 C   0  0  0  0  0  0  0  0  0  0  0  0
   -8.2474   -4.8402  -23.1922 C   0  0  0  0  0  0  0  0  0  0  0  0
   -6.4133   -6.8872  -26.0551 C   0  0  0  0  0  0  0  0  0  0  0  0
   -6.7532   -6.3362  -24.7020 N   0  0  0  0  0  0  0  0  0  0  0  0
   -7.9075   -5.3912  -24.5453 C   0  0  0  0  0  0  0  0  0  0  0  0
   -8.7219   -4.9972  -25.7418 O   0  0  0  0  0  0  0  0  0  0  0  0
   -6.2186   -6.5948  -23.9167 H   0  0  0  0  0  0  0  0  0  0  0  0
 29 30  1  0  0  0
 30 31  1  0  0  0
 31 32  2  0  0  0
 31 28  1  0  0  0
 28  1  1  0  0  0
  1  2  1  0  0  0
  3  2  1  0  0  0
  3  4  1  0  0  0
  4  5  2  0  0  0
  4  6  1  0  0  0
  6 18  1  0  0  0
 18 19  2  0  0  0
 19 20  1  0  0  0
 20 21  2  0  0  0
 21 22  1  0  0  0
 22 23  2  0  0  0
 23 24  1  0  0  0
 24 25  2  0  0  0
 25 26  1  0  0  0
 26 27  2  0  0  0
  6  7  1  0  0  0
  7  8  1  0  0  0
  8  9  1  0  0  0
  3 10  1  0  0  0
 10 11  2  0  0  0
 11 12  1  0  0  0
 12 13  2  0  0  0
 13 14  1  0  0  0
 14 15  2  0  0  0
 15 16  1  0  0  0
 16 17  2  0  0  0
 16  1  1  0  0  0
  8  3  1  0  0  0
 15 10  1  0  0  0
 27 18  1  0  0  0
 27 22  1  0  0  0
 30 33  1  0  0  0
M  END
> <minimizedAffinity>
-7.56825

> <CNNscore>
0.2350687981

> <CNNaffinity>
5.8473272324

> <CNN_VS>
1.3745242357

> <CNNaffinity_variance>
0.1121858358

$$$$
