


 33 37  0  0  0  0  0  0  0  0999 V2000
   11.1195   -0.6178   23.1299 N   0  0  0  0  0  0  0  0  0  0  0  0
    9.7946   -1.2829   22.9009 C   0  0  0  0  0  0  0  0  0  0  0  0
    9.3809   -2.4443   23.7553 C   0  0  0  0  0  0  0  0  0  0  0  0
    8.8344   -3.6094   24.5259 C   0  0  0  0  0  0  0  0  0  0  0  0
    9.1412   -4.3452   25.4429 O   0  0  0  0  0  0  0  0  0  0  0  0
    7.4857   -3.9463   23.9624 N   0  0  0  0  0  0  0  0  0  0  0  0
    7.1986   -2.9893   22.8436 C   0  0  0  0  0  0  0  0  0  0  0  0
    8.3699   -2.0610   22.7156 C   0  0  0  0  0  0  0  0  0  0  0  0
    8.5062   -0.9453   21.7223 C   0  0  0  0  0  0  0  0  0  0  0  0
   10.2919   -2.9405   24.8388 C   0  0  0  0  0  0  0  0  0  0  0  0
    9.8781   -4.1018   25.6932 C   0  0  0  0  0  0  0  0  0  0  0  0
   10.7892   -4.5980   26.7765 C   0  0  0  0  0  0  0  0  0  0  0  0
   12.1140   -3.9329   27.0055 C   0  0  0  0  0  0  0  0  0  0  0  0
   12.5278   -2.7716   26.1511 C   0  0  0  0  0  0  0  0  0  0  0  0
   11.6168   -2.2754   25.0677 C   0  0  0  0  0  0  0  0  0  0  0  0
   12.0305   -1.1140   24.2132 C   0  0  0  0  0  0  0  0  0  0  0  0
   13.3554   -0.4489   24.4422 O   0  0  0  0  0  0  0  0  0  0  0  0
    6.5826   -5.0469   24.4348 C   0  0  0  0  0  0  0  0  0  0  0  0
    6.7860   -6.4483   23.9401 C   0  0  0  0  0  0  0  0  0  0  0  0
    5.8830   -7.5489   24.4125 N   0  0  0  0  0  0  0  0  0  0  0  0
    4.7766   -7.2481   25.3796 C   0  0  0  0  0  0  0  0  0  0  0  0
    4.5732   -5.8467   25.8743 C   0  0  0  0  0  0  0  0  0  0  0  0
    3.4667   -5.5459   26.8415 C   0  0  0  0  0  0  0  0  0  0  0  0
    3.2634   -4.1445   27.3362 C   0  0  0  0  0  0  0  0  0  0  0  0
    4.1665   -3.0439   26.8638 C   0  0  0  0  0  0  0  0  0  0  0  0
    5.2729   -3.3447   25.8966 C   0  0  0  0  0  0  0  0  0  0  0  0
    5.4762   -4.7461   25.4019 C   0  0  0  0  0  0  0  0  0  0  0  0
   11.5332    0.5436   22.2754 C   0  0  0  0  0  0  0  0  0  0  0  0
   12.0394    4.3855   23.1319 C   0  0  0  0  0  0  0  0  0  0  0  0
   12.3272    2.9836   22.6825 N   0  0  0  0  0  0  0  0  0  0  0  0
   11.2454    1.9454   22.7248 C   0  0  0  0  0  0  0  0  0  0  0  0
    9.8757    2.3091   23.2164 O   0  0  0  0  0  0  0  0  0  0  0  0
   13.2262    2.7449   22.3598 H   0  0  0  0  0  0  0  0  0  0  0  0
 29 30  1  0  0  0
 30 31  1  0  0  0
 31 32  2  0  0  0
 31 28  1  0  0  0
 28  1  1  0  0  0
  1  2  1  0  0  0
  3  2  1  0  0  0
  3  4  1  0  0  0
  4  5  2  0  0  0
  4  6  1  0  0  0
  6 18  1  0  0  0
 18 19  2  0  0  0
 19 20  1  0  0  0
 20 21  2  0  0  0
 21 22  1  0  0  0
 22 23  2  0  0  0
 23 24  1  0  0  0
 24 25  2  0  0  0
 25 26  1  0  0  0
 26 27  2  0  0  0
  6  7  1  0  0  0
  7  8  1  0  0  0
  8  9  1  0  0  0
  3 10  1  0  0  0
 10 11  2  0  0  0
 11 12  1  0  0  0
 12 13  2  0  0  0
 13 14  1  0  0  0
 14 15  2  0  0  0
 15 16  1  0  0  0
 16 17  2  0  0  0
 16  1  1  0  0  0
  8  3  1  0  0  0
 15 10  1  0  0  0
 27 18  1  0  0  0
 27 22  1  0  0  0
 30 33  1  0  0  0
M  END
> <minimizedAffinity>
-8.39868

> <CNNscore>
0.6153821349

> <CNNaffinity>
6.5714883804

> <CNN_VS>
4.0439767838

> <CNNaffinity_variance>
0.0897046626

$$$$



 33 37  0  0  0  0  0  0  0  0999 V2000
   10.7287    1.6327   22.8231 N   0  0  0  0  0  0  0  0  0  0  0  0
    9.3415    1.3332   23.3086 C   0  0  0  0  0  0  0  0  0  0  0  0
    9.1048    0.1798   24.2379 C   0  0  0  0  0  0  0  0  0  0  0  0
    8.7163   -0.9338   25.1647 C   0  0  0  0  0  0  0  0  0  0  0  0
    9.2210   -1.8533   25.7779 O   0  0  0  0  0  0  0  0  0  0  0  0
    7.2338   -0.8605   25.3815 N   0  0  0  0  0  0  0  0  0  0  0  0
    6.7061    0.2983   24.5888 C   0  0  0  0  0  0  0  0  0  0  0  0
    7.8625    0.9413   23.8820 C   0  0  0  0  0  0  0  0  0  0  0  0
    7.7893    2.1360   22.9780 C   0  0  0  0  0  0  0  0  0  0  0  0
   10.2555   -0.6741   24.6818 C   0  0  0  0  0  0  0  0  0  0  0  0
   10.0188   -1.8275   25.6111 C   0  0  0  0  0  0  0  0  0  0  0  0
   11.1694   -2.6813   26.0549 C   0  0  0  0  0  0  0  0  0  0  0  0
   12.5567   -2.3818   25.5693 C   0  0  0  0  0  0  0  0  0  0  0  0
   12.7934   -1.2284   24.6400 C   0  0  0  0  0  0  0  0  0  0  0  0
   11.6427   -0.3746   24.1962 C   0  0  0  0  0  0  0  0  0  0  0  0
   11.8794    0.7788   23.2668 C   0  0  0  0  0  0  0  0  0  0  0  0
   13.2666    1.0784   22.7813 O   0  0  0  0  0  0  0  0  0  0  0  0
    6.4217   -1.7841   26.2404 C   0  0  0  0  0  0  0  0  0  0  0  0
    6.2165   -3.2101   25.8228 C   0  0  0  0  0  0  0  0  0  0  0  0
    5.4044   -4.1336   26.6816 N   0  0  0  0  0  0  0  0  0  0  0  0
    4.7975   -3.6311   27.9580 C   0  0  0  0  0  0  0  0  0  0  0  0
    5.0027   -2.2050   28.3755 C   0  0  0  0  0  0  0  0  0  0  0  0
    4.3958   -1.7025   29.6520 C   0  0  0  0  0  0  0  0  0  0  0  0
    4.6011   -0.2765   30.0694 C   0  0  0  0  0  0  0  0  0  0  0  0
    5.4132    0.6470   29.2106 C   0  0  0  0  0  0  0  0  0  0  0  0
    6.0201    0.1445   27.9343 C   0  0  0  0  0  0  0  0  0  0  0  0
    5.8148   -1.2815   27.5167 C   0  0  0  0  0  0  0  0  0  0  0  0
   10.9654    2.7861   21.8937 C   0  0  0  0  0  0  0  0  0  0  0  0
   10.7504    6.4568   23.3870 C   0  0  0  0  0  0  0  0  0  0  0  0
   10.3369    5.1236   22.8377 N   0  0  0  0  0  0  0  0  0  0  0  0
   11.3788    4.1193   22.4430 C   0  0  0  0  0  0  0  0  0  0  0  0
   12.8342    4.4481   22.5976 O   0  0  0  0  0  0  0  0  0  0  0  0
    9.3818    4.9078   22.7362 H   0  0  0  0  0  0  0  0  0  0  0  0
 29 30  1  0  0  0
 30 31  1  0  0  0
 31 32  2  0  0  0
 31 28  1  0  0  0
 28  1  1  0  0  0
  1  2  1  0  0  0
  3  2  1  0  0  0
  3  4  1  0  0  0
  4  5  2  0  0  0
  4  6  1  0  0  0
  6 18  1  0  0  0
 18 19  2  0  0  0
 19 20  1  0  0  0
 20 21  2  0  0  0
 21 22  1  0  0  0
 22 23  2  0  0  0
 23 24  1  0  0  0
 24 25  2  0  0  0
 25 26  1  0  0  0
 26 27  2  0  0  0
  6  7  1  0  0  0
  7  8  1  0  0  0
  8  9  1  0  0  0
  3 10  1  0  0  0
 10 11  2  0  0  0
 11 12  1  0  0  0
 12 13  2  0  0  0
 13 14  1  0  0  0
 14 15  2  0  0  0
 15 16  1  0  0  0
 16 17  2  0  0  0
 16  1  1  0  0  0
  8  3  1  0  0  0
 15 10  1  0  0  0
 27 18  1  0  0  0
 27 22  1  0  0  0
 30 33  1  0  0  0
M  END
> <minimizedAffinity>
-7.62628

> <CNNscore>
0.3722873032

> <CNNaffinity>
6.3044061661

> <CNN_VS>
2.3470504284

> <CNNaffinity_variance>
0.3202519715

$$$$



 33 37  0  0  0  0  0  0  0  0999 V2000
    4.0589   -6.2411   25.0103 N   0  0  0  0  0  0  0  0  0  0  0  0
    5.1207   -5.5551   24.2029 C   0  0  0  0  0  0  0  0  0  0  0  0
    5.9952   -4.5171   24.8414 C   0  0  0  0  0  0  0  0  0  0  0  0
    6.9403   -3.4647   25.3405 C   0  0  0  0  0  0  0  0  0  0  0  0
    7.2009   -2.8549   26.3586 O   0  0  0  0  0  0  0  0  0  0  0  0
    7.8276   -3.0602   24.2007 N   0  0  0  0  0  0  0  0  0  0  0  0
    7.4309   -3.8628   22.9971 C   0  0  0  0  0  0  0  0  0  0  0  0
    6.2984   -4.7632   23.3931 C   0  0  0  0  0  0  0  0  0  0  0  0
    5.5930   -5.7384   22.4980 C   0  0  0  0  0  0  0  0  0  0  0  0
    5.8079   -4.1651   26.2875 C   0  0  0  0  0  0  0  0  0  0  0  0
    6.6824   -3.1271   26.9261 C   0  0  0  0  0  0  0  0  0  0  0  0
    6.4950   -2.7751   28.3720 C   0  0  0  0  0  0  0  0  0  0  0  0
    5.4332   -3.4611   29.1795 C   0  0  0  0  0  0  0  0  0  0  0  0
    4.5587   -4.4991   28.5409 C   0  0  0  0  0  0  0  0  0  0  0  0
    4.7461   -4.8511   27.0949 C   0  0  0  0  0  0  0  0  0  0  0  0
    3.8716   -5.8891   26.4563 C   0  0  0  0  0  0  0  0  0  0  0  0
    2.8097   -6.5751   27.2637 O   0  0  0  0  0  0  0  0  0  0  0  0
    8.9198   -2.0336   24.2549 C   0  0  0  0  0  0  0  0  0  0  0  0
    8.7316   -0.7024   23.5896 C   0  0  0  0  0  0  0  0  0  0  0  0
    9.8238    0.3243   23.6439 N   0  0  0  0  0  0  0  0  0  0  0  0
   11.1043    0.0198   24.3634 C   0  0  0  0  0  0  0  0  0  0  0  0
   11.2925   -1.3114   25.0287 C   0  0  0  0  0  0  0  0  0  0  0  0
   12.5730   -1.6158   25.7482 C   0  0  0  0  0  0  0  0  0  0  0  0
   12.7612   -2.9470   26.4134 C   0  0  0  0  0  0  0  0  0  0  0  0
   11.6689   -3.9737   26.3592 C   0  0  0  0  0  0  0  0  0  0  0  0
   10.3885   -3.6692   25.6397 C   0  0  0  0  0  0  0  0  0  0  0  0
   10.2003   -2.3381   24.9744 C   0  0  0  0  0  0  0  0  0  0  0  0
    3.1844   -7.2791   24.3716 C   0  0  0  0  0  0  0  0  0  0  0  0
   -0.0086   -6.1013   22.3303 C   0  0  0  0  0  0  0  0  0  0  0  0
    1.4157   -6.4266   22.6703 N   0  0  0  0  0  0  0  0  0  0  0  0
    1.7601   -6.9538   24.0316 C   0  0  0  0  0  0  0  0  0  0  0  0
    0.6803   -7.1558   25.0530 O   0  0  0  0  0  0  0  0  0  0  0  0
    2.1244   -6.2940   21.9999 H   0  0  0  0  0  0  0  0  0  0  0  0
 29 30  1  0  0  0
 30 31  1  0  0  0
 31 32  2  0  0  0
 31 28  1  0  0  0
 28  1  1  0  0  0
  1  2  1  0  0  0
  3  2  1  0  0  0
  3  4  1  0  0  0
  4  5  2  0  0  0
  4  6  1  0  0  0
  6 18  1  0  0  0
 18 19  2  0  0  0
 19 20  1  0  0  0
 20 21  2  0  0  0
 21 22  1  0  0  0
 22 23  2  0  0  0
 23 24  1  0  0  0
 24 25  2  0  0  0
 25 26  1  0  0  0
 26 27  2  0  0  0
  6  7  1  0  0  0
  7  8  1  0  0  0
  8  9  1  0  0  0
  3 10  1  0  0  0
 10 11  2  0  0  0
 11 12  1  0  0  0
 12 13  2  0  0  0
 13 14  1  0  0  0
 14 15  2  0  0  0
 15 16  1  0  0  0
 16 17  2  0  0  0
 16  1  1  0  0  0
  8  3  1  0  0  0
 15 10  1  0  0  0
 27 18  1  0  0  0
 27 22  1  0  0  0
 30 33  1  0  0  0
M  END
> <minimizedAffinity>
-7.47178

> <CNNscore>
0.3496887684

> <CNNaffinity>
5.9321870804

> <CNN_VS>
2.0744192600

> <CNNaffinity_variance>
0.0691714436

$$$$



 33 37  0  0  0  0  0  0  0  0999 V2000
   10.4745    0.3889   23.8652 N   0  0  0  0  0  0  0  0  0  0  0  0
    9.0702    0.0435   24.2635 C   0  0  0  0  0  0  0  0  0  0  0  0
    8.8100   -1.1458   25.1396 C   0  0  0  0  0  0  0  0  0  0  0  0
    8.3974   -2.2986   26.0061 C   0  0  0  0  0  0  0  0  0  0  0  0
    8.8891   -3.2278   26.6153 O   0  0  0  0  0  0  0  0  0  0  0  0
    6.9041   -2.2643   26.1433 N   0  0  0  0  0  0  0  0  0  0  0  0
    6.3937   -1.0902   25.3616 C   0  0  0  0  0  0  0  0  0  0  0  0
    7.5716   -0.3990   24.7413 C   0  0  0  0  0  0  0  0  0  0  0  0
    7.5201    0.8243   23.8747 C   0  0  0  0  0  0  0  0  0  0  0  0
    9.9542   -1.9900   25.6175 C   0  0  0  0  0  0  0  0  0  0  0  0
    9.6940   -3.1794   26.4936 C   0  0  0  0  0  0  0  0  0  0  0  0
   10.8382   -4.0234   26.9715 C   0  0  0  0  0  0  0  0  0  0  0  0
   12.2425   -3.6781   26.5732 C   0  0  0  0  0  0  0  0  0  0  0  0
   12.5027   -2.4887   25.6971 C   0  0  0  0  0  0  0  0  0  0  0  0
   11.3585   -1.6447   25.2193 C   0  0  0  0  0  0  0  0  0  0  0  0
   11.6186   -0.4552   24.3431 C   0  0  0  0  0  0  0  0  0  0  0  0
   13.0230   -0.1099   23.9448 O   0  0  0  0  0  0  0  0  0  0  0  0
    6.0680   -3.2337   26.9250 C   0  0  0  0  0  0  0  0  0  0  0  0
    5.9256   -3.0743   28.4097 C   0  0  0  0  0  0  0  0  0  0  0  0
    5.0895   -4.0437   29.1914 N   0  0  0  0  0  0  0  0  0  0  0  0
    4.3958   -5.1727   28.4884 C   0  0  0  0  0  0  0  0  0  0  0  0
    4.5382   -5.3321   27.0037 C   0  0  0  0  0  0  0  0  0  0  0  0
    3.8444   -6.4612   26.3007 C   0  0  0  0  0  0  0  0  0  0  0  0
    3.9869   -6.6206   24.8160 C   0  0  0  0  0  0  0  0  0  0  0  0
    4.8230   -5.6511   24.0343 C   0  0  0  0  0  0  0  0  0  0  0  0
    5.5167   -4.5221   24.7373 C   0  0  0  0  0  0  0  0  0  0  0  0
    5.3743   -4.3627   26.2220 C   0  0  0  0  0  0  0  0  0  0  0  0
   10.7346    1.5783   22.9891 C   0  0  0  0  0  0  0  0  0  0  0  0
    8.1760    4.6081   23.1426 C   0  0  0  0  0  0  0  0  0  0  0  0
    9.2996    3.6822   23.5032 N   0  0  0  0  0  0  0  0  0  0  0  0
    9.6109    2.5042   22.6284 C   0  0  0  0  0  0  0  0  0  0  0  0
    8.7985    2.2520   21.3929 O   0  0  0  0  0  0  0  0  0  0  0  0
    9.8328    3.8477   24.3141 H   0  0  0  0  0  0  0  0  0  0  0  0
 29 30  1  0  0  0
 30 31  1  0  0  0
 31 32  2  0  0  0
 31 28  1  0  0  0
 28  1  1  0  0  0
  1  2  1  0  0  0
  3  2  1  0  0  0
  3  4  1  0  0  0
  4  5  2  0  0  0
  4  6  1  0  0  0
  6 18  1  0  0  0
 18 19  2  0  0  0
 19 20  1  0  0  0
 20 21  2  0  0  0
 21 22  1  0  0  0
 22 23  2  0  0  0
 23 24  1  0  0  0
 24 25  2  0  0  0
 25 26  1  0  0  0
 26 27  2  0  0  0
  6  7  1  0  0  0
  7  8  1  0  0  0
  8  9  1  0  0  0
  3 10  1  0  0  0
 10 11  2  0  0  0
 11 12  1  0  0  0
 12 13  2  0  0  0
 13 14  1  0  0  0
 14 15  2  0  0  0
 15 16  1  0  0  0
 16 17  2  0  0  0
 16  1  1  0  0  0
  8  3  1  0  0  0
 15 10  1  0  0  0
 27 18  1  0  0  0
 27 22  1  0  0  0
 30 33  1  0  0  0
M  END
> <minimizedAffinity>
-8.23633

> <CNNscore>
0.3373141289

> <CNNaffinity>
6.1267905235

> <CNN_VS>
2.0666530132

> <CNNaffinity_variance>
0.1370752454

$$$$



 33 37  0  0  0  0  0  0  0  0999 V2000
   10.0871    0.0089   23.1497 N   0  0  0  0  0  0  0  0  0  0  0  0
    8.8137   -0.7794   23.0656 C   0  0  0  0  0  0  0  0  0  0  0  0
    8.6607   -2.0439   23.8579 C   0  0  0  0  0  0  0  0  0  0  0  0
    8.3640   -3.3202   24.5878 C   0  0  0  0  0  0  0  0  0  0  0  0
    8.8873   -4.0878   25.3711 O   0  0  0  0  0  0  0  0  0  0  0  0
    6.9804   -3.7594   24.2102 N   0  0  0  0  0  0  0  0  0  0  0  0
    6.4218   -2.7545   23.2468 C   0  0  0  0  0  0  0  0  0  0  0  0
    7.4603   -1.6942   23.0291 C   0  0  0  0  0  0  0  0  0  0  0  0
    7.3226   -0.4949   22.1388 C   0  0  0  0  0  0  0  0  0  0  0  0
    9.7811   -2.5201   24.7343 C   0  0  0  0  0  0  0  0  0  0  0  0
    9.6281   -3.7845   25.5265 C   0  0  0  0  0  0  0  0  0  0  0  0
   10.7485   -4.2607   26.4028 C   0  0  0  0  0  0  0  0  0  0  0  0
   12.0219   -3.4723   26.4869 C   0  0  0  0  0  0  0  0  0  0  0  0
   12.1749   -2.2079   25.6946 C   0  0  0  0  0  0  0  0  0  0  0  0
   11.0545   -1.7318   24.8183 C   0  0  0  0  0  0  0  0  0  0  0  0
   11.2074   -0.4673   24.0260 C   0  0  0  0  0  0  0  0  0  0  0  0
   12.4808    0.3210   24.1101 O   0  0  0  0  0  0  0  0  0  0  0  0
    6.2785   -4.9879   24.7085 C   0  0  0  0  0  0  0  0  0  0  0  0
    6.5638   -6.3207   24.0822 C   0  0  0  0  0  0  0  0  0  0  0  0
    5.8619   -7.5492   24.5805 N   0  0  0  0  0  0  0  0  0  0  0  0
    4.8748   -7.4448   25.7050 C   0  0  0  0  0  0  0  0  0  0  0  0
    4.5895   -6.1120   26.3313 C   0  0  0  0  0  0  0  0  0  0  0  0
    3.6023   -6.0076   27.4559 C   0  0  0  0  0  0  0  0  0  0  0  0
    3.3171   -4.6747   28.0821 C   0  0  0  0  0  0  0  0  0  0  0  0
    4.0189   -3.4463   27.5838 C   0  0  0  0  0  0  0  0  0  0  0  0
    5.0061   -3.5507   26.4593 C   0  0  0  0  0  0  0  0  0  0  0  0
    5.2914   -4.8835   25.8330 C   0  0  0  0  0  0  0  0  0  0  0  0
   10.2400    1.2734   22.3573 C   0  0  0  0  0  0  0  0  0  0  0  0
    7.8933    4.2738   23.4710 C   0  0  0  0  0  0  0  0  0  0  0  0
    8.9968    3.2579   23.4825 N   0  0  0  0  0  0  0  0  0  0  0  0
    9.1365    2.2893   22.3458 C   0  0  0  0  0  0  0  0  0  0  0  0
    8.1726    2.3366   21.1974 O   0  0  0  0  0  0  0  0  0  0  0  0
    9.6295    3.2269   24.2362 H   0  0  0  0  0  0  0  0  0  0  0  0
 29 30  1  0  0  0
 30 31  1  0  0  0
 31 32  2  0  0  0
 31 28  1  0  0  0
 28  1  1  0  0  0
  1  2  1  0  0  0
  3  2  1  0  0  0
  3  4  1  0  0  0
  4  5  2  0  0  0
  4  6  1  0  0  0
  6 18  1  0  0  0
 18 19  2  0  0  0
 19 20  1  0  0  0
 20 21  2  0  0  0
 21 22  1  0  0  0
 22 23  2  0  0  0
 23 24  1  0  0  0
 24 25  2  0  0  0
 25 26  1  0  0  0
 26 27  2  0  0  0
  6  7  1  0  0  0
  7  8  1  0  0  0
  8  9  1  0  0  0
  3 10  1  0  0  0
 10 11  2  0  0  0
 11 12  1  0  0  0
 12 13  2  0  0  0
 13 14  1  0  0  0
 14 15  2  0  0  0
 15 16  1  0  0  0
 16 17  2  0  0  0
 16  1  1  0  0  0
  8  3  1  0  0  0
 15 10  1  0  0  0
 27 18  1  0  0  0
 27 22  1  0  0  0
 30 33  1  0  0  0
M  END
> <minimizedAffinity>
-8.17729

> <CNNscore>
0.3008920848

> <CNNaffinity>
6.1516017914

> <CNN_VS>
1.8509682417

> <CNNaffinity_variance>
0.1713719815

$$$$



 33 37  0  0  0  0  0  0  0  0999 V2000
    4.7817    1.1184   21.3890 N   0  0  0  0  0  0  0  0  0  0  0  0
    6.1395    0.4941   21.2591 C   0  0  0  0  0  0  0  0  0  0  0  0
    7.0361    0.3929   22.4574 C   0  0  0  0  0  0  0  0  0  0  0  0
    8.0375    0.2229   23.5611 C   0  0  0  0  0  0  0  0  0  0  0  0
    8.1640    0.4549   24.7471 O   0  0  0  0  0  0  0  0  0  0  0  0
    9.2512   -0.4460   22.9869 N   0  0  0  0  0  0  0  0  0  0  0  0
    8.9998   -0.6895   21.5283 C   0  0  0  0  0  0  0  0  0  0  0  0
    7.6308   -0.1710   21.2011 C   0  0  0  0  0  0  0  0  0  0  0  0
    6.9722   -0.2097   19.8540 C   0  0  0  0  0  0  0  0  0  0  0  0
    6.5749    0.9158   23.7855 C   0  0  0  0  0  0  0  0  0  0  0  0
    7.4715    0.8145   24.9838 C   0  0  0  0  0  0  0  0  0  0  0  0
    7.0103    1.3375   26.3119 C   0  0  0  0  0  0  0  0  0  0  0  0
    5.6525    1.9617   26.4417 C   0  0  0  0  0  0  0  0  0  0  0  0
    4.7560    2.0630   25.2434 C   0  0  0  0  0  0  0  0  0  0  0  0
    5.2171    1.5400   23.9154 C   0  0  0  0  0  0  0  0  0  0  0  0
    4.3206    1.6413   22.7170 C   0  0  0  0  0  0  0  0  0  0  0  0
    2.9628    2.2655   22.8468 O   0  0  0  0  0  0  0  0  0  0  0  0
   10.4973   -0.8079   23.7393 C   0  0  0  0  0  0  0  0  0  0  0  0
   11.7121    0.0668   23.6432 C   0  0  0  0  0  0  0  0  0  0  0  0
   12.9583   -0.2951   24.3956 N   0  0  0  0  0  0  0  0  0  0  0  0
   12.9897   -1.5317   25.2440 C   0  0  0  0  0  0  0  0  0  0  0  0
   11.7749   -2.4064   25.3401 C   0  0  0  0  0  0  0  0  0  0  0  0
   11.8063   -3.6430   26.1885 C   0  0  0  0  0  0  0  0  0  0  0  0
   10.5915   -4.5177   26.2846 C   0  0  0  0  0  0  0  0  0  0  0  0
    9.3453   -4.1558   25.5322 C   0  0  0  0  0  0  0  0  0  0  0  0
    9.3139   -2.9192   24.6838 C   0  0  0  0  0  0  0  0  0  0  0  0
   10.5287   -2.0445   24.5877 C   0  0  0  0  0  0  0  0  0  0  0  0
    3.8852    1.2196   20.1906 C   0  0  0  0  0  0  0  0  0  0  0  0
    1.8494    4.6257   20.1290 C   0  0  0  0  0  0  0  0  0  0  0  0
    2.9976    3.6605   20.1272 N   0  0  0  0  0  0  0  0  0  0  0  0
    2.7369    2.1848   20.1924 C   0  0  0  0  0  0  0  0  0  0  0  0
    1.3281    1.6743   20.2596 O   0  0  0  0  0  0  0  0  0  0  0  0
    3.9222    3.9956   20.0831 H   0  0  0  0  0  0  0  0  0  0  0  0
 29 30  1  0  0  0
 30 31  1  0  0  0
 31 32  2  0  0  0
 31 28  1  0  0  0
 28  1  1  0  0  0
  1  2  1  0  0  0
  3  2  1  0  0  0
  3  4  1  0  0  0
  4  5  2  0  0  0
  4  6  1  0  0  0
  6 18  1  0  0  0
 18 19  2  0  0  0
 19 20  1  0  0  0
 20 21  2  0  0  0
 21 22  1  0  0  0
 22 23  2  0  0  0
 23 24  1  0  0  0
 24 25  2  0  0  0
 25 26  1  0  0  0
 26 27  2  0  0  0
  6  7  1  0  0  0
  7  8  1  0  0  0
  8  9  1  0  0  0
  3 10  1  0  0  0
 10 11  2  0  0  0
 11 12  1  0  0  0
 12 13  2  0  0  0
 13 14  1  0  0  0
 14 15  2  0  0  0
 15 16  1  0  0  0
 16 17  2  0  0  0
 16  1  1  0  0  0
  8  3  1  0  0  0
 15 10  1  0  0  0
 27 18  1  0  0  0
 27 22  1  0  0  0
 30 33  1  0  0  0
M  END
> <minimizedAffinity>
-8.39028

> <CNNscore>
0.3007417619

> <CNNaffinity>
5.9218807220

> <CNN_VS>
1.7809568644

> <CNNaffinity_variance>
0.1677004695

$$$$



 33 37  0  0  0  0  0  0  0  0999 V2000
    5.0823    2.3074   21.4011 N   0  0  0  0  0  0  0  0  0  0  0  0
    5.9085    1.0572   21.3346 C   0  0  0  0  0  0  0  0  0  0  0  0
    6.5625    0.5236   22.5745 C   0  0  0  0  0  0  0  0  0  0  0  0
    7.2732   -0.1258   23.7248 C   0  0  0  0  0  0  0  0  0  0  0  0
    7.4513    0.0301   24.9166 O   0  0  0  0  0  0  0  0  0  0  0  0
    7.9731   -1.3475   23.2072 N   0  0  0  0  0  0  0  0  0  0  0  0
    7.6949   -1.4530   21.7370 C   0  0  0  0  0  0  0  0  0  0  0  0
    6.8231   -0.2967   21.3460 C   0  0  0  0  0  0  0  0  0  0  0  0
    6.3033   -0.0108   19.9683 C   0  0  0  0  0  0  0  0  0  0  0  0
    6.3903    1.2401   23.8811 C   0  0  0  0  0  0  0  0  0  0  0  0
    7.0443    0.7065   25.1210 C   0  0  0  0  0  0  0  0  0  0  0  0
    6.8721    1.4230   26.4275 C   0  0  0  0  0  0  0  0  0  0  0  0
    6.0459    2.6732   26.4940 C   0  0  0  0  0  0  0  0  0  0  0  0
    5.3919    3.2068   25.2541 C   0  0  0  0  0  0  0  0  0  0  0  0
    5.5641    2.4903   23.9476 C   0  0  0  0  0  0  0  0  0  0  0  0
    4.9100    3.0239   22.7076 C   0  0  0  0  0  0  0  0  0  0  0  0
    4.0838    4.2741   22.7741 O   0  0  0  0  0  0  0  0  0  0  0  0
    8.8050   -2.2968   24.0176 C   0  0  0  0  0  0  0  0  0  0  0  0
    8.2195   -3.5965   24.4844 C   0  0  0  0  0  0  0  0  0  0  0  0
    9.0514   -4.5458   25.2947 N   0  0  0  0  0  0  0  0  0  0  0  0
   10.4688   -4.1954   25.6382 C   0  0  0  0  0  0  0  0  0  0  0  0
   11.0544   -2.8957   25.1714 C   0  0  0  0  0  0  0  0  0  0  0  0
   12.4719   -2.5453   25.5150 C   0  0  0  0  0  0  0  0  0  0  0  0
   13.0573   -1.2456   25.0481 C   0  0  0  0  0  0  0  0  0  0  0  0
   12.2254   -0.2962   24.2377 C   0  0  0  0  0  0  0  0  0  0  0  0
   10.8080   -0.6466   23.8942 C   0  0  0  0  0  0  0  0  0  0  0  0
   10.2224   -1.9464   24.3611 C   0  0  0  0  0  0  0  0  0  0  0  0
    4.4282    2.8410   20.1611 C   0  0  0  0  0  0  0  0  0  0  0  0
    0.8185    4.4784   19.9646 C   0  0  0  0  0  0  0  0  0  0  0  0
    2.3109    4.3405   20.0254 N   0  0  0  0  0  0  0  0  0  0  0  0
    2.9358    2.9790   20.1004 C   0  0  0  0  0  0  0  0  0  0  0  0
    2.0683    1.7553   20.1147 O   0  0  0  0  0  0  0  0  0  0  0  0
    2.8802    5.1436   20.0160 H   0  0  0  0  0  0  0  0  0  0  0  0
 29 30  1  0  0  0
 30 31  1  0  0  0
 31 32  2  0  0  0
 31 28  1  0  0  0
 28  1  1  0  0  0
  1  2  1  0  0  0
  3  2  1  0  0  0
  3  4  1  0  0  0
  4  5  2  0  0  0
  4  6  1  0  0  0
  6 18  1  0  0  0
 18 19  2  0  0  0
 19 20  1  0  0  0
 20 21  2  0  0  0
 21 22  1  0  0  0
 22 23  2  0  0  0
 23 24  1  0  0  0
 24 25  2  0  0  0
 25 26  1  0  0  0
 26 27  2  0  0  0
  6  7  1  0  0  0
  7  8  1  0  0  0
  8  9  1  0  0  0
  3 10  1  0  0  0
 10 11  2  0  0  0
 11 12  1  0  0  0
 12 13  2  0  0  0
 13 14  1  0  0  0
 14 15  2  0  0  0
 15 16  1  0  0  0
 16 17  2  0  0  0
 16  1  1  0  0  0
  8  3  1  0  0  0
 15 10  1  0  0  0
 27 18  1  0  0  0
 27 22  1  0  0  0
 30 33  1  0  0  0
M  END
> <minimizedAffinity>
-7.66585

> <CNNscore>
0.2675951123

> <CNNaffinity>
6.0011014938

> <CNN_VS>
1.6058654785

> <CNNaffinity_variance>
0.1414707005

$$$$



 33 37  0  0  0  0  0  0  0  0999 V2000
   10.1582    4.0381   22.9959 N   0  0  0  0  0  0  0  0  0  0  0  0
    8.8738    3.2809   23.1605 C   0  0  0  0  0  0  0  0  0  0  0  0
    8.8850    1.7811   23.1829 C   0  0  0  0  0  0  0  0  0  0  0  0
    8.7403    0.2887   23.2237 C   0  0  0  0  0  0  0  0  0  0  0  0
    9.4225   -0.7147   23.1585 O   0  0  0  0  0  0  0  0  0  0  0  0
    7.2857   -0.0314   23.4016 N   0  0  0  0  0  0  0  0  0  0  0  0
    6.5313    1.2632   23.4708 C   0  0  0  0  0  0  0  0  0  0  0  0
    7.5197    2.3834   23.3356 C   0  0  0  0  0  0  0  0  0  0  0  0
    7.1991    3.8487   23.3505 C   0  0  0  0  0  0  0  0  0  0  0  0
   10.1805    1.0385   23.0407 C   0  0  0  0  0  0  0  0  0  0  0  0
   10.1916   -0.4613   23.0631 C   0  0  0  0  0  0  0  0  0  0  0  0
   11.4871   -1.2038   22.9208 C   0  0  0  0  0  0  0  0  0  0  0  0
   12.7715   -0.4466   22.7562 C   0  0  0  0  0  0  0  0  0  0  0  0
   12.7603    1.0531   22.7338 C   0  0  0  0  0  0  0  0  0  0  0  0
   11.4648    1.7957   22.8760 C   0  0  0  0  0  0  0  0  0  0  0  0
   11.4536    3.2955   22.8537 C   0  0  0  0  0  0  0  0  0  0  0  0
   12.7380    4.0527   22.6890 O   0  0  0  0  0  0  0  0  0  0  0  0
    6.6901   -1.4050   23.4941 C   0  0  0  0  0  0  0  0  0  0  0  0
    6.4183   -2.1903   22.2453 C   0  0  0  0  0  0  0  0  0  0  0  0
    5.8227   -3.5639   22.3378 N   0  0  0  0  0  0  0  0  0  0  0  0
    5.4989   -4.1521   23.6791 C   0  0  0  0  0  0  0  0  0  0  0  0
    5.7707   -3.3668   24.9279 C   0  0  0  0  0  0  0  0  0  0  0  0
    5.4468   -3.9551   26.2693 C   0  0  0  0  0  0  0  0  0  0  0  0
    5.7186   -3.1697   27.5180 C   0  0  0  0  0  0  0  0  0  0  0  0
    6.3142   -1.7961   27.4255 C   0  0  0  0  0  0  0  0  0  0  0  0
    6.6381   -1.2079   26.0842 C   0  0  0  0  0  0  0  0  0  0  0  0
    6.3663   -1.9932   24.8354 C   0  0  0  0  0  0  0  0  0  0  0  0
   10.1470    5.5379   22.9735 C   0  0  0  0  0  0  0  0  0  0  0  0
    6.7312    7.4343   22.2763 C   0  0  0  0  0  0  0  0  0  0  0  0
    8.0126    6.6903   22.0427 N   0  0  0  0  0  0  0  0  0  0  0  0
    8.8656    6.2819   23.2070 C   0  0  0  0  0  0  0  0  0  0  0  0
    8.4373    6.6176   24.6049 O   0  0  0  0  0  0  0  0  0  0  0  0
    8.2937    6.4700   21.1253 H   0  0  0  0  0  0  0  0  0  0  0  0
 29 30  1  0  0  0
 30 31  1  0  0  0
 31 32  2  0  0  0
 31 28  1  0  0  0
 28  1  1  0  0  0
  1  2  1  0  0  0
  3  2  1  0  0  0
  3  4  1  0  0  0
  4  5  2  0  0  0
  4  6  1  0  0  0
  6 18  1  0  0  0
 18 19  2  0  0  0
 19 20  1  0  0  0
 20 21  2  0  0  0
 21 22  1  0  0  0
 22 23  2  0  0  0
 23 24  1  0  0  0
 24 25  2  0  0  0
 25 26  1  0  0  0
 26 27  2  0  0  0
  6  7  1  0  0  0
  7  8  1  0  0  0
  8  9  1  0  0  0
  3 10  1  0  0  0
 10 11  2  0  0  0
 11 12  1  0  0  0
 12 13  2  0  0  0
 13 14  1  0  0  0
 14 15  2  0  0  0
 15 16  1  0  0  0
 16 17  2  0  0  0
 16  1  1  0  0  0
  8  3  1  0  0  0
 15 10  1  0  0  0
 27 18  1  0  0  0
 27 22  1  0  0  0
 30 33  1  0  0  0
M  END
> <minimizedAffinity>
-7.31612

> <CNNscore>
0.2657874823

> <CNNaffinity>
6.2269349098

> <CNN_VS>
1.6550413370

> <CNNaffinity_variance>
0.3504822552

$$$$



 33 37  0  0  0  0  0  0  0  0999 V2000
    3.5670    3.6897   21.4026 N   0  0  0  0  0  0  0  0  0  0  0  0
    4.8714    4.0262   22.0623 C   0  0  0  0  0  0  0  0  0  0  0  0
    6.0782    3.1694   21.8185 C   0  0  0  0  0  0  0  0  0  0  0  0
    7.3631    2.4097   21.6703 C   0  0  0  0  0  0  0  0  0  0  0  0
    7.8069    1.4342   21.0976 O   0  0  0  0  0  0  0  0  0  0  0  0
    8.4058    3.0954   22.5024 N   0  0  0  0  0  0  0  0  0  0  0  0
    7.7654    4.2791   23.1649 C   0  0  0  0  0  0  0  0  0  0  0  0
    6.3269    4.3248   22.7422 C   0  0  0  0  0  0  0  0  0  0  0  0
    5.3148    5.3465   23.1685 C   0  0  0  0  0  0  0  0  0  0  0  0
    5.9806    1.9761   20.9148 C   0  0  0  0  0  0  0  0  0  0  0  0
    7.1874    1.1193   20.6709 C   0  0  0  0  0  0  0  0  0  0  0  0
    7.0898   -0.0739   19.7673 C   0  0  0  0  0  0  0  0  0  0  0  0
    5.7854   -0.4104   19.1076 C   0  0  0  0  0  0  0  0  0  0  0  0
    4.5786    0.4464   19.3515 C   0  0  0  0  0  0  0  0  0  0  0  0
    4.6762    1.6396   20.2551 C   0  0  0  0  0  0  0  0  0  0  0  0
    3.4694    2.4965   20.4990 C   0  0  0  0  0  0  0  0  0  0  0  0
    2.1649    2.1600   19.8393 O   0  0  0  0  0  0  0  0  0  0  0  0
    9.8375    2.6719   22.6467 C   0  0  0  0  0  0  0  0  0  0  0  0
   10.9283    3.4900   22.0215 C   0  0  0  0  0  0  0  0  0  0  0  0
   12.3600    3.0665   22.1658 N   0  0  0  0  0  0  0  0  0  0  0  0
   12.7009    1.8249   22.9353 C   0  0  0  0  0  0  0  0  0  0  0  0
   11.6101    1.0068   23.5604 C   0  0  0  0  0  0  0  0  0  0  0  0
   11.9510   -0.2349   24.3299 C   0  0  0  0  0  0  0  0  0  0  0  0
   10.8602   -1.0530   24.9551 C   0  0  0  0  0  0  0  0  0  0  0  0
    9.4285   -0.6295   24.8108 C   0  0  0  0  0  0  0  0  0  0  0  0
    9.0876    0.6122   24.0413 C   0  0  0  0  0  0  0  0  0  0  0  0
   10.1784    1.4303   23.4162 C   0  0  0  0  0  0  0  0  0  0  0  0
    2.3602    4.5466   21.6465 C   0  0  0  0  0  0  0  0  0  0  0  0
   -1.1629    5.0786   19.8987 C   0  0  0  0  0  0  0  0  0  0  0  0
   -0.1159    4.9373   20.9635 N   0  0  0  0  0  0  0  0  0  0  0  0
    1.3131    4.6879   20.5818 C   0  0  0  0  0  0  0  0  0  0  0  0
    1.6951    4.5800   19.1352 O   0  0  0  0  0  0  0  0  0  0  0  0
   -0.3666    5.0081   21.9129 H   0  0  0  0  0  0  0  0  0  0  0  0
 29 30  1  0  0  0
 30 31  1  0  0  0
 31 32  2  0  0  0
 31 28  1  0  0  0
 28  1  1  0  0  0
  1  2  1  0  0  0
  3  2  1  0  0  0
  3  4  1  0  0  0
  4  5  2  0  0  0
  4  6  1  0  0  0
  6 18  1  0  0  0
 18 19  2  0  0  0
 19 20  1  0  0  0
 20 21  2  0  0  0
 21 22  1  0  0  0
 22 23  2  0  0  0
 23 24  1  0  0  0
 24 25  2  0  0  0
 25 26  1  0  0  0
 26 27  2  0  0  0
  6  7  1  0  0  0
  7  8  1  0  0  0
  8  9  1  0  0  0
  3 10  1  0  0  0
 10 11  2  0  0  0
 11 12  1  0  0  0
 12 13  2  0  0  0
 13 14  1  0  0  0
 14 15  2  0  0  0
 15 16  1  0  0  0
 16 17  2  0  0  0
 16  1  1  0  0  0
  8  3  1  0  0  0
 15 10  1  0  0  0
 27 18  1  0  0  0
 27 22  1  0  0  0
 30 33  1  0  0  0
M  END
> <minimizedAffinity>
-7.81626

> <CNNscore>
0.2632845640

> <CNNaffinity>
5.7756085396

> <CNN_VS>
1.5206285715

> <CNNaffinity_variance>
0.0810238793

$$$$
