


 40 45  0  0  0  0  0  0  0  0999 V2000
   10.6267    4.3032   22.7523 N   0  0  0  0  0  0  0  0  0  0  0  0
    9.2887    3.7554   23.1519 C   0  0  0  0  0  0  0  0  0  0  0  0
    9.1389    2.2962   23.4651 C   0  0  0  0  0  0  0  0  0  0  0  0
    8.8375    0.8668   23.8059 C   0  0  0  0  0  0  0  0  0  0  0  0
    9.3975   -0.2082   23.8891 O   0  0  0  0  0  0  0  0  0  0  0  0
    7.3797    0.7688   24.1455 N   0  0  0  0  0  0  0  0  0  0  0  0
    6.7802    2.1375   24.0145 C   0  0  0  0  0  0  0  0  0  0  0  0
    7.8674    3.0815   23.5940 C   0  0  0  0  0  0  0  0  0  0  0  0
   10.3271    1.3847   23.3787 C   0  0  0  0  0  0  0  0  0  0  0  0
   10.1773   -0.0746   23.6919 C   0  0  0  0  0  0  0  0  0  0  0  0
   11.3655   -0.9860   23.6055 C   0  0  0  0  0  0  0  0  0  0  0  0
   11.2158   -2.4453   23.9187 Cl  0  0  0  0  0  0  0  0  0  0  0  0
   12.7035   -0.4382   23.2059 C   0  0  0  0  0  0  0  0  0  0  0  0
   12.8533    1.0211   22.8927 C   0  0  0  0  0  0  0  0  0  0  0  0
   11.6651    1.9325   22.9791 C   0  0  0  0  0  0  0  0  0  0  0  0
   11.8149    3.3918   22.6659 C   0  0  0  0  0  0  0  0  0  0  0  0
   13.1529    3.9396   22.2663 O   0  0  0  0  0  0  0  0  0  0  0  0
    6.6497   -0.4790   24.5457 C   0  0  0  0  0  0  0  0  0  0  0  0
    6.4534   -1.5848   23.5513 C   0  0  0  0  0  0  0  0  0  0  0  0
    5.7233   -2.8325   23.9516 N   0  0  0  0  0  0  0  0  0  0  0  0
    5.1896   -2.9744   25.3462 C   0  0  0  0  0  0  0  0  0  0  0  0
    5.3859   -1.8687   26.3406 C   0  0  0  0  0  0  0  0  0  0  0  0
    4.8522   -2.0107   27.7353 C   0  0  0  0  0  0  0  0  0  0  0  0
    5.0485   -0.9048   28.7296 C   0  0  0  0  0  0  0  0  0  0  0  0
    5.7786    0.3429   28.3293 C   0  0  0  0  0  0  0  0  0  0  0  0
    6.3123    0.4848   26.9347 C   0  0  0  0  0  0  0  0  0  0  0  0
    6.1160   -0.6209   25.9403 C   0  0  0  0  0  0  0  0  0  0  0  0
   10.7765    5.7626   22.4391 C   0  0  0  0  0  0  0  0  0  0  0  0
   10.7112    7.8254   25.8288 C   0  0  0  0  0  0  0  0  0  0  0  0
   11.0829    6.7961   24.8029 N   0  0  0  0  0  0  0  0  0  0  0  0
   10.4048    6.7918   23.4650 C   0  0  0  0  0  0  0  0  0  0  0  0
    9.3549    7.8167   23.1529 O   0  0  0  0  0  0  0  0  0  0  0  0
   11.7720    6.1234   25.0077 H   0  0  0  0  0  0  0  0  0  0  0  0
    7.7107    4.5525   23.3460 C   0  0  0  0  0  0  0  0  0  0  0  0
    6.3419    5.1442   23.1843 C   0  0  0  0  0  0  0  0  0  0  0  0
    5.6202    5.7017   24.3752 C   0  0  0  0  0  0  0  0  0  0  0  0
    4.2514    6.2934   24.2134 C   0  0  0  0  0  0  0  0  0  0  0  0
    3.6043    6.3276   22.8606 C   0  0  0  0  0  0  0  0  0  0  0  0
    4.3258    5.7701   21.6697 C   0  0  0  0  0  0  0  0  0  0  0  0
    5.6947    5.1784   21.8314 C   0  0  0  0  0  0  0  0  0  0  0  0
 29 30  1  0  0  0
 30 31  1  0  0  0
 31 32  2  0  0  0
 31 28  1  0  0  0
 28  1  1  0  0  0
  1  2  1  0  0  0
  3  2  1  0  0  0
  3  4  1  0  0  0
  4  5  2  0  0  0
  4  6  1  0  0  0
  6 18  1  0  0  0
 18 19  2  0  0  0
 19 20  1  0  0  0
 20 21  2  0  0  0
 21 22  1  0  0  0
 22 23  2  0  0  0
 23 24  1  0  0  0
 24 25  2  0  0  0
 25 26  1  0  0  0
 26 27  2  0  0  0
  6  7  1  0  0  0
  7  8  1  0  0  0
  8 34  1  0  0  0
 34 35  1  0  0  0
 35 36  2  0  0  0
 36 37  1  0  0  0
 37 38  2  0  0  0
 38 39  1  0  0  0
 39 40  2  0  0  0
  3  9  1  0  0  0
  9 10  2  0  0  0
 10 11  1  0  0  0
 11 12  1  0  0  0
 11 13  2  0  0  0
 13 14  1  0  0  0
 14 15  2  0  0  0
 15 16  1  0  0  0
 16 17  2  0  0  0
 16  1  1  0  0  0
  8  3  1  0  0  0
 40 35  1  0  0  0
 15  9  1  0  0  0
 27 18  1  0  0  0
 27 22  1  0  0  0
 30 33  1  0  0  0
M  END
> <minimizedAffinity>
-7.62134

> <CNNscore>
0.3983941078

> <CNNaffinity>
6.9527559280

> <CNN_VS>
2.7699370384

> <CNNaffinity_variance>
0.3852158189

$$$$



 40 45  0  0  0  0  0  0  0  0999 V2000
    7.4205   -2.3857   22.3666 N   0  0  0  0  0  0  0  0  0  0  0  0
    8.6033   -1.5007   22.6269 C   0  0  0  0  0  0  0  0  0  0  0  0
    8.5011   -0.0231   22.3897 C   0  0  0  0  0  0  0  0  0  0  0  0
    8.5484    1.4640   22.1996 C   0  0  0  0  0  0  0  0  0  0  0  0
    7.8344    2.3799   21.8421 O   0  0  0  0  0  0  0  0  0  0  0  0
    9.9208    1.9364   22.5782 N   0  0  0  0  0  0  0  0  0  0  0  0
   10.7218    0.7411   23.0023 C   0  0  0  0  0  0  0  0  0  0  0  0
    9.8443   -0.4699   22.8858 C   0  0  0  0  0  0  0  0  0  0  0  0
    7.2160    0.5696   21.8922 C   0  0  0  0  0  0  0  0  0  0  0  0
    7.1138    2.0471   21.6551 C   0  0  0  0  0  0  0  0  0  0  0  0
    5.8288    2.6397   21.1576 C   0  0  0  0  0  0  0  0  0  0  0  0
    5.7266    4.1174   20.9204 Cl  0  0  0  0  0  0  0  0  0  0  0  0
    4.6460    1.7547   20.8973 C   0  0  0  0  0  0  0  0  0  0  0  0
    4.7482    0.2772   21.1345 C   0  0  0  0  0  0  0  0  0  0  0  0
    6.0332   -0.3154   21.6319 C   0  0  0  0  0  0  0  0  0  0  0  0
    6.1355   -1.7931   21.8691 C   0  0  0  0  0  0  0  0  0  0  0  0
    4.9526   -2.6780   21.6088 O   0  0  0  0  0  0  0  0  0  0  0  0
   10.4069    3.3549   22.5394 C   0  0  0  0  0  0  0  0  0  0  0  0
   11.7330    3.6766   21.9164 C   0  0  0  0  0  0  0  0  0  0  0  0
   12.2191    5.0951   21.8777 N   0  0  0  0  0  0  0  0  0  0  0  0
   11.3792    6.1919   22.4620 C   0  0  0  0  0  0  0  0  0  0  0  0
   10.0531    5.8702   23.0850 C   0  0  0  0  0  0  0  0  0  0  0  0
    9.2131    6.9672   23.6693 C   0  0  0  0  0  0  0  0  0  0  0  0
    7.8871    6.6454   24.2923 C   0  0  0  0  0  0  0  0  0  0  0  0
    7.4010    5.2269   24.3310 C   0  0  0  0  0  0  0  0  0  0  0  0
    8.2409    4.1301   23.7467 C   0  0  0  0  0  0  0  0  0  0  0  0
    9.5670    4.4517   23.1237 C   0  0  0  0  0  0  0  0  0  0  0  0
    7.5227   -3.8633   22.6038 C   0  0  0  0  0  0  0  0  0  0  0  0
    4.3419   -6.1795   23.1206 C   0  0  0  0  0  0  0  0  0  0  0  0
    5.4687   -5.4471   22.4544 N   0  0  0  0  0  0  0  0  0  0  0  0
    6.3959   -4.5957   23.2700 C   0  0  0  0  0  0  0  0  0  0  0  0
    6.1963   -4.4766   24.7519 O   0  0  0  0  0  0  0  0  0  0  0  0
    5.5997   -5.5253   21.4818 H   0  0  0  0  0  0  0  0  0  0  0  0
   10.2406   -1.8801   23.2088 C   0  0  0  0  0  0  0  0  0  0  0  0
   11.2070   -2.1511   24.3234 C   0  0  0  0  0  0  0  0  0  0  0  0
   10.8155   -3.0588   25.4516 C   0  0  0  0  0  0  0  0  0  0  0  0
   11.7820   -3.3297   26.5662 C   0  0  0  0  0  0  0  0  0  0  0  0
   13.1400   -2.6930   26.5527 C   0  0  0  0  0  0  0  0  0  0  0  0
   13.5317   -1.7853   25.4246 C   0  0  0  0  0  0  0  0  0  0  0  0
   12.5651   -1.5143   24.3099 C   0  0  0  0  0  0  0  0  0  0  0  0
 29 30  1  0  0  0
 30 31  1  0  0  0
 31 32  2  0  0  0
 31 28  1  0  0  0
 28  1  1  0  0  0
  1  2  1  0  0  0
  3  2  1  0  0  0
  3  4  1  0  0  0
  4  5  2  0  0  0
  4  6  1  0  0  0
  6 18  1  0  0  0
 18 19  2  0  0  0
 19 20  1  0  0  0
 20 21  2  0  0  0
 21 22  1  0  0  0
 22 23  2  0  0  0
 23 24  1  0  0  0
 24 25  2  0  0  0
 25 26  1  0  0  0
 26 27  2  0  0  0
  6  7  1  0  0  0
  7  8  1  0  0  0
  8 34  1  0  0  0
 34 35  1  0  0  0
 35 36  2  0  0  0
 36 37  1  0  0  0
 37 38  2  0  0  0
 38 39  1  0  0  0
 39 40  2  0  0  0
  3  9  1  0  0  0
  9 10  2  0  0  0
 10 11  1  0  0  0
 11 12  1  0  0  0
 11 13  2  0  0  0
 13 14  1  0  0  0
 14 15  2  0  0  0
 15 16  1  0  0  0
 16 17  2  0  0  0
 16  1  1  0  0  0
  8  3  1  0  0  0
 40 35  1  0  0  0
 15  9  1  0  0  0
 27 18  1  0  0  0
 27 22  1  0  0  0
 30 33  1  0  0  0
M  END
> <minimizedAffinity>
-8.83537

> <CNNscore>
0.3799131215

> <CNNaffinity>
7.1423654556

> <CNN_VS>
2.7134783268

> <CNNaffinity_variance>
0.1549380124

$$$$



 40 45  0  0  0  0  0  0  0  0999 V2000
    8.8543    4.3311   23.0448 N   0  0  0  0  0  0  0  0  0  0  0  0
    7.9716    3.1510   23.3245 C   0  0  0  0  0  0  0  0  0  0  0  0
    8.5539    1.7690   23.3536 C   0  0  0  0  0  0  0  0  0  0  0  0
    8.9913    0.3355   23.4146 C   0  0  0  0  0  0  0  0  0  0  0  0
    9.9964   -0.3368   23.2954 O   0  0  0  0  0  0  0  0  0  0  0  0
    7.7866   -0.5042   23.7201 N   0  0  0  0  0  0  0  0  0  0  0  0
    6.6045    0.4103   23.8480 C   0  0  0  0  0  0  0  0  0  0  0  0
    7.0787    1.8152   23.6215 C   0  0  0  0  0  0  0  0  0  0  0  0
   10.0190    1.5670   23.1030 C   0  0  0  0  0  0  0  0  0  0  0  0
   10.6013    0.1850   23.1321 C   0  0  0  0  0  0  0  0  0  0  0  0
   12.0664   -0.0169   22.8814 C   0  0  0  0  0  0  0  0  0  0  0  0
   12.6488   -1.3990   22.9105 Cl  0  0  0  0  0  0  0  0  0  0  0  0
   12.9491    1.1632   22.6017 C   0  0  0  0  0  0  0  0  0  0  0  0
   12.3667    2.5452   22.5726 C   0  0  0  0  0  0  0  0  0  0  0  0
   10.9017    2.7471   22.8232 C   0  0  0  0  0  0  0  0  0  0  0  0
   10.3193    4.1292   22.7941 C   0  0  0  0  0  0  0  0  0  0  0  0
   11.2020    5.3092   22.5144 O   0  0  0  0  0  0  0  0  0  0  0  0
    7.7673   -1.9965   23.8713 C   0  0  0  0  0  0  0  0  0  0  0  0
    6.7656   -2.8144   23.1112 C   0  0  0  0  0  0  0  0  0  0  0  0
    6.7463   -4.3067   23.2624 N   0  0  0  0  0  0  0  0  0  0  0  0
    7.7287   -4.9810   24.1735 C   0  0  0  0  0  0  0  0  0  0  0  0
    8.7304   -4.1630   24.9335 C   0  0  0  0  0  0  0  0  0  0  0  0
    9.7129   -4.8373   25.8447 C   0  0  0  0  0  0  0  0  0  0  0  0
   10.7145   -4.0193   26.6046 C   0  0  0  0  0  0  0  0  0  0  0  0
   10.7338   -2.5271   26.4535 C   0  0  0  0  0  0  0  0  0  0  0  0
    9.7514   -1.8528   25.5424 C   0  0  0  0  0  0  0  0  0  0  0  0
    8.7497   -2.6708   24.7824 C   0  0  0  0  0  0  0  0  0  0  0  0
    8.2718    5.7132   23.0157 C   0  0  0  0  0  0  0  0  0  0  0  0
   10.2644    7.8237   25.7222 C   0  0  0  0  0  0  0  0  0  0  0  0
    9.9728    6.8633   24.6074 N   0  0  0  0  0  0  0  0  0  0  0  0
    8.5634    6.6735   24.1305 C   0  0  0  0  0  0  0  0  0  0  0  0
    7.4456    7.4440   24.7683 O   0  0  0  0  0  0  0  0  0  0  0  0
   10.7065    6.3576   24.1888 H   0  0  0  0  0  0  0  0  0  0  0  0
    6.2273    3.0496   23.6567 C   0  0  0  0  0  0  0  0  0  0  0  0
    5.1923    3.2774   22.5952 C   0  0  0  0  0  0  0  0  0  0  0  0
    4.3031    4.4836   22.6611 C   0  0  0  0  0  0  0  0  0  0  0  0
    3.2682    4.7114   21.5996 C   0  0  0  0  0  0  0  0  0  0  0  0
    3.1224    3.7329   20.4720 C   0  0  0  0  0  0  0  0  0  0  0  0
    4.0115    2.5267   20.4060 C   0  0  0  0  0  0  0  0  0  0  0  0
    5.0465    2.2989   21.4676 C   0  0  0  0  0  0  0  0  0  0  0  0
 29 30  1  0  0  0
 30 31  1  0  0  0
 31 32  2  0  0  0
 31 28  1  0  0  0
 28  1  1  0  0  0
  1  2  1  0  0  0
  3  2  1  0  0  0
  3  4  1  0  0  0
  4  5  2  0  0  0
  4  6  1  0  0  0
  6 18  1  0  0  0
 18 19  2  0  0  0
 19 20  1  0  0  0
 20 21  2  0  0  0
 21 22  1  0  0  0
 22 23  2  0  0  0
 23 24  1  0  0  0
 24 25  2  0  0  0
 25 26  1  0  0  0
 26 27  2  0  0  0
  6  7  1  0  0  0
  7  8  1  0  0  0
  8 34  1  0  0  0
 34 35  1  0  0  0
 35 36  2  0  0  0
 36 37  1  0  0  0
 37 38  2  0  0  0
 38 39  1  0  0  0
 39 40  2  0  0  0
  3  9  1  0  0  0
  9 10  2  0  0  0
 10 11  1  0  0  0
 11 12  1  0  0  0
 11 13  2  0  0  0
 13 14  1  0  0  0
 14 15  2  0  0  0
 15 16  1  0  0  0
 16 17  2  0  0  0
 16  1  1  0  0  0
  8  3  1  0  0  0
 40 35  1  0  0  0
 15  9  1  0  0  0
 27 18  1  0  0  0
 27 22  1  0  0  0
 30 33  1  0  0  0
M  END
> <minimizedAffinity>
-7.75394

> <CNNscore>
0.2916085124

> <CNNaffinity>
6.8997063637

> <CNN_VS>
2.0120131969

> <CNNaffinity_variance>
0.2848813534

$$$$



 40 45  0  0  0  0  0  0  0  0999 V2000
    8.9515    0.5628   23.8558 N   0  0  0  0  0  0  0  0  0  0  0  0
    8.7022   -0.9152   23.9124 C   0  0  0  0  0  0  0  0  0  0  0  0
    7.3583   -1.4337   24.3308 C   0  0  0  0  0  0  0  0  0  0  0  0
    6.0728   -2.0964   24.7285 C   0  0  0  0  0  0  0  0  0  0  0  0
    4.9492   -1.8071   25.0894 O   0  0  0  0  0  0  0  0  0  0  0  0
    6.2707   -3.5808   24.6432 N   0  0  0  0  0  0  0  0  0  0  0  0
    7.6786   -3.8356   24.1927 C   0  0  0  0  0  0  0  0  0  0  0  0
    8.3507   -2.5086   23.9996 C   0  0  0  0  0  0  0  0  0  0  0  0
    6.2636   -0.4740   24.6927 C   0  0  0  0  0  0  0  0  0  0  0  0
    4.9197   -0.9925   25.1111 C   0  0  0  0  0  0  0  0  0  0  0  0
    3.8252   -0.0328   25.4729 C   0  0  0  0  0  0  0  0  0  0  0  0
    2.4812   -0.5513   25.8914 Cl  0  0  0  0  0  0  0  0  0  0  0  0
    4.0745    1.4452   25.4163 C   0  0  0  0  0  0  0  0  0  0  0  0
    5.4184    1.9636   24.9979 C   0  0  0  0  0  0  0  0  0  0  0  0
    6.5129    1.0040   24.6361 C   0  0  0  0  0  0  0  0  0  0  0  0
    7.8569    1.5224   24.2176 C   0  0  0  0  0  0  0  0  0  0  0  0
    8.1062    3.0005   24.1610 O   0  0  0  0  0  0  0  0  0  0  0  0
    5.2414   -4.6268   24.9538 C   0  0  0  0  0  0  0  0  0  0  0  0
    4.6405   -5.4401   23.8458 C   0  0  0  0  0  0  0  0  0  0  0  0
    3.6112   -6.4861   24.1564 N   0  0  0  0  0  0  0  0  0  0  0  0
    3.1829   -6.7189   25.5750 C   0  0  0  0  0  0  0  0  0  0  0  0
    3.7839   -5.9056   26.6829 C   0  0  0  0  0  0  0  0  0  0  0  0
    3.3555   -6.1385   28.1016 C   0  0  0  0  0  0  0  0  0  0  0  0
    3.9565   -5.3252   29.2095 C   0  0  0  0  0  0  0  0  0  0  0  0
    4.9858   -4.2792   28.8989 C   0  0  0  0  0  0  0  0  0  0  0  0
    5.4141   -4.0464   27.4803 C   0  0  0  0  0  0  0  0  0  0  0  0
    4.8131   -4.8596   26.3723 C   0  0  0  0  0  0  0  0  0  0  0  0
   10.2955    1.0812   23.4373 C   0  0  0  0  0  0  0  0  0  0  0  0
   11.2456    4.8577   22.6721 C   0  0  0  0  0  0  0  0  0  0  0  0
   11.1371    3.5384   23.3777 N   0  0  0  0  0  0  0  0  0  0  0  0
   10.4040    2.4004   22.7317 C   0  0  0  0  0  0  0  0  0  0  0  0
    9.7793    2.5816   21.3800 O   0  0  0  0  0  0  0  0  0  0  0  0
   11.5471    3.4195   24.2648 H   0  0  0  0  0  0  0  0  0  0  0  0
    9.7668   -2.2941   23.5537 C   0  0  0  0  0  0  0  0  0  0  0  0
   10.8988   -2.5436   24.5055 C   0  0  0  0  0  0  0  0  0  0  0  0
   12.2170   -1.8582   24.2994 C   0  0  0  0  0  0  0  0  0  0  0  0
   13.3491   -2.1077   25.2513 C   0  0  0  0  0  0  0  0  0  0  0  0
   13.1629   -3.0426   26.4094 C   0  0  0  0  0  0  0  0  0  0  0  0
   11.8448   -3.7280   26.6156 C   0  0  0  0  0  0  0  0  0  0  0  0
   10.7127   -3.4786   25.6637 C   0  0  0  0  0  0  0  0  0  0  0  0
 29 30  1  0  0  0
 30 31  1  0  0  0
 31 32  2  0  0  0
 31 28  1  0  0  0
 28  1  1  0  0  0
  1  2  1  0  0  0
  3  2  1  0  0  0
  3  4  1  0  0  0
  4  5  2  0  0  0
  4  6  1  0  0  0
  6 18  1  0  0  0
 18 19  2  0  0  0
 19 20  1  0  0  0
 20 21  2  0  0  0
 21 22  1  0  0  0
 22 23  2  0  0  0
 23 24  1  0  0  0
 24 25  2  0  0  0
 25 26  1  0  0  0
 26 27  2  0  0  0
  6  7  1  0  0  0
  7  8  1  0  0  0
  8 34  1  0  0  0
 34 35  1  0  0  0
 35 36  2  0  0  0
 36 37  1  0  0  0
 37 38  2  0  0  0
 38 39  1  0  0  0
 39 40  2  0  0  0
  3  9  1  0  0  0
  9 10  2  0  0  0
 10 11  1  0  0  0
 11 12  1  0  0  0
 11 13  2  0  0  0
 13 14  1  0  0  0
 14 15  2  0  0  0
 15 16  1  0  0  0
 16 17  2  0  0  0
 16  1  1  0  0  0
  8  3  1  0  0  0
 40 35  1  0  0  0
 15  9  1  0  0  0
 27 18  1  0  0  0
 27 22  1  0  0  0
 30 33  1  0  0  0
M  END
> <minimizedAffinity>
-7.65034

> <CNNscore>
0.2773888707

> <CNNaffinity>
6.8100333214

> <CNN_VS>
1.8890274763

> <CNNaffinity_variance>
0.0719094574

$$$$



 40 45  0  0  0  0  0  0  0  0999 V2000
    5.3817    2.4776   22.9422 N   0  0  0  0  0  0  0  0  0  0  0  0
    6.7126    1.8273   23.1783 C   0  0  0  0  0  0  0  0  0  0  0  0
    6.8223    0.6624   24.1168 C   0  0  0  0  0  0  0  0  0  0  0  0
    7.0854   -0.5044   25.0221 C   0  0  0  0  0  0  0  0  0  0  0  0
    6.4916   -1.2512   25.7744 O   0  0  0  0  0  0  0  0  0  0  0  0
    8.5495   -0.8232   24.9538 N   0  0  0  0  0  0  0  0  0  0  0  0
    9.1914    0.1466   24.0063 C   0  0  0  0  0  0  0  0  0  0  0  0
    8.1238    1.0647   23.4891 C   0  0  0  0  0  0  0  0  0  0  0  0
    5.6010    0.1477   24.8194 C   0  0  0  0  0  0  0  0  0  0  0  0
    5.7106   -1.0172   25.7579 C   0  0  0  0  0  0  0  0  0  0  0  0
    4.4893   -1.5319   26.4604 C   0  0  0  0  0  0  0  0  0  0  0  0
    4.5989   -2.6969   27.3990 Cl  0  0  0  0  0  0  0  0  0  0  0  0
    3.1584   -0.8816   26.2244 C   0  0  0  0  0  0  0  0  0  0  0  0
    3.0487    0.2833   25.2858 C   0  0  0  0  0  0  0  0  0  0  0  0
    4.2700    0.7979   24.5833 C   0  0  0  0  0  0  0  0  0  0  0  0
    4.1604    1.9629   23.6447 C   0  0  0  0  0  0  0  0  0  0  0  0
    2.8294    2.6132   23.4087 O   0  0  0  0  0  0  0  0  0  0  0  0
    9.2490   -1.9192   25.7017 C   0  0  0  0  0  0  0  0  0  0  0  0
    8.4507   -2.9354   26.4634 C   0  0  0  0  0  0  0  0  0  0  0  0
    9.1502   -4.0315   27.2113 N   0  0  0  0  0  0  0  0  0  0  0  0
   10.6480   -4.1114   27.1975 C   0  0  0  0  0  0  0  0  0  0  0  0
   11.4463   -3.0952   26.4358 C   0  0  0  0  0  0  0  0  0  0  0  0
   12.9442   -3.1751   26.4220 C   0  0  0  0  0  0  0  0  0  0  0  0
   13.7424   -2.1589   25.6603 C   0  0  0  0  0  0  0  0  0  0  0  0
   13.0429   -1.0628   24.9125 C   0  0  0  0  0  0  0  0  0  0  0  0
   11.5451   -0.9829   24.9262 C   0  0  0  0  0  0  0  0  0  0  0  0
   10.7468   -1.9991   25.6879 C   0  0  0  0  0  0  0  0  0  0  0  0
    5.2720    3.6425   22.0036 C   0  0  0  0  0  0  0  0  0  0  0  0
    2.6969    2.7002   19.1347 C   0  0  0  0  0  0  0  0  0  0  0  0
    3.8514    2.6114   20.0883 N   0  0  0  0  0  0  0  0  0  0  0  0
    4.1176    3.7313   21.0500 C   0  0  0  0  0  0  0  0  0  0  0  0
    3.2293    4.9400   21.0582 O   0  0  0  0  0  0  0  0  0  0  0  0
    4.4344    1.8181   20.0829 H   0  0  0  0  0  0  0  0  0  0  0  0
    8.3230    2.1879   22.5150 C   0  0  0  0  0  0  0  0  0  0  0  0
    9.5331    3.0677   22.6219 C   0  0  0  0  0  0  0  0  0  0  0  0
    9.3746    4.5267   22.9320 C   0  0  0  0  0  0  0  0  0  0  0  0
   10.5847    5.4065   23.0389 C   0  0  0  0  0  0  0  0  0  0  0  0
   11.9534    4.8273   22.8357 C   0  0  0  0  0  0  0  0  0  0  0  0
   12.1120    3.3683   22.5256 C   0  0  0  0  0  0  0  0  0  0  0  0
   10.9018    2.4884   22.4187 C   0  0  0  0  0  0  0  0  0  0  0  0
 29 30  1  0  0  0
 30 31  1  0  0  0
 31 32  2  0  0  0
 31 28  1  0  0  0
 28  1  1  0  0  0
  1  2  1  0  0  0
  3  2  1  0  0  0
  3  4  1  0  0  0
  4  5  2  0  0  0
  4  6  1  0  0  0
  6 18  1  0  0  0
 18 19  2  0  0  0
 19 20  1  0  0  0
 20 21  2  0  0  0
 21 22  1  0  0  0
 22 23  2  0  0  0
 23 24  1  0  0  0
 24 25  2  0  0  0
 25 26  1  0  0  0
 26 27  2  0  0  0
  6  7  1  0  0  0
  7  8  1  0  0  0
  8 34  1  0  0  0
 34 35  1  0  0  0
 35 36  2  0  0  0
 36 37  1  0  0  0
 37 38  2  0  0  0
 38 39  1  0  0  0
 39 40  2  0  0  0
  3  9  1  0  0  0
  9 10  2  0  0  0
 10 11  1  0  0  0
 11 12  1  0  0  0
 11 13  2  0  0  0
 13 14  1  0  0  0
 14 15  2  0  0  0
 15 16  1  0  0  0
 16 17  2  0  0  0
 16  1  1  0  0  0
  8  3  1  0  0  0
 40 35  1  0  0  0
 15  9  1  0  0  0
 27 18  1  0  0  0
 27 22  1  0  0  0
 30 33  1  0  0  0
M  END
> <minimizedAffinity>
-7.51111

> <CNNscore>
0.2482035905

> <CNNaffinity>
6.7152452469

> <CNN_VS>
1.6667479277

> <CNNaffinity_variance>
0.1739681214

$$$$



 40 45  0  0  0  0  0  0  0  0999 V2000
   10.4787    0.4579   23.5476 N   0  0  0  0  0  0  0  0  0  0  0  0
    9.0797    0.0605   23.9148 C   0  0  0  0  0  0  0  0  0  0  0  0
    8.8473   -1.0938   24.8441 C   0  0  0  0  0  0  0  0  0  0  0  0
    8.4614   -2.2201   25.7565 C   0  0  0  0  0  0  0  0  0  0  0  0
    8.9763   -3.0893   26.4316 O   0  0  0  0  0  0  0  0  0  0  0  0
    6.9642   -2.2571   25.8397 N   0  0  0  0  0  0  0  0  0  0  0  0
    6.4247   -1.1537   24.9786 C   0  0  0  0  0  0  0  0  0  0  0  0
    7.5886   -0.4347   24.3633 C   0  0  0  0  0  0  0  0  0  0  0  0
   10.0141   -1.8507   25.4062 C   0  0  0  0  0  0  0  0  0  0  0  0
    9.7817   -3.0050   26.3355 C   0  0  0  0  0  0  0  0  0  0  0  0
   10.9484   -3.7619   26.8976 C   0  0  0  0  0  0  0  0  0  0  0  0
   10.7161   -4.9162   27.8269 Cl  0  0  0  0  0  0  0  0  0  0  0  0
   12.3474   -3.3644   26.5304 C   0  0  0  0  0  0  0  0  0  0  0  0
   12.5797   -2.2102   25.6011 C   0  0  0  0  0  0  0  0  0  0  0  0
   11.4131   -1.4533   25.0390 C   0  0  0  0  0  0  0  0  0  0  0  0
   11.6454   -0.2990   24.1097 C   0  0  0  0  0  0  0  0  0  0  0  0
   13.0444    0.0985   23.7425 O   0  0  0  0  0  0  0  0  0  0  0  0
    6.1495   -3.2272   26.6428 C   0  0  0  0  0  0  0  0  0  0  0  0
    5.9507   -3.0031   28.1127 C   0  0  0  0  0  0  0  0  0  0  0  0
    5.1360   -3.9732   28.9159 N   0  0  0  0  0  0  0  0  0  0  0  0
    4.5201   -5.1674   28.2492 C   0  0  0  0  0  0  0  0  0  0  0  0
    4.7188   -5.3915   26.7794 C   0  0  0  0  0  0  0  0  0  0  0  0
    4.1028   -6.5858   26.1128 C   0  0  0  0  0  0  0  0  0  0  0  0
    4.3016   -6.8099   24.6430 C   0  0  0  0  0  0  0  0  0  0  0  0
    5.1163   -5.8398   23.8398 C   0  0  0  0  0  0  0  0  0  0  0  0
    5.7322   -4.6455   24.5064 C   0  0  0  0  0  0  0  0  0  0  0  0
    5.5335   -4.4214   25.9762 C   0  0  0  0  0  0  0  0  0  0  0  0
   10.7110    1.6122   22.6182 C   0  0  0  0  0  0  0  0  0  0  0  0
    8.3197    4.7274   23.1905 C   0  0  0  0  0  0  0  0  0  0  0  0
    9.4016    3.7119   23.4101 N   0  0  0  0  0  0  0  0  0  0  0  0
    9.6291    2.6278   22.3987 C   0  0  0  0  0  0  0  0  0  0  0  0
    8.7747    2.5592   21.1677 O   0  0  0  0  0  0  0  0  0  0  0  0
    9.9624    3.7569   24.2180 H   0  0  0  0  0  0  0  0  0  0  0  0
    7.5078    0.7375   23.4309 C   0  0  0  0  0  0  0  0  0  0  0  0
    6.4625    0.7700   22.3557 C   0  0  0  0  0  0  0  0  0  0  0  0
    5.4738    1.8969   22.3047 C   0  0  0  0  0  0  0  0  0  0  0  0
    4.4284    1.9294   21.2294 C   0  0  0  0  0  0  0  0  0  0  0  0
    4.3718    0.8350   20.2052 C   0  0  0  0  0  0  0  0  0  0  0  0
    5.3604   -0.2919   20.2562 C   0  0  0  0  0  0  0  0  0  0  0  0
    6.4058   -0.3244   21.3314 C   0  0  0  0  0  0  0  0  0  0  0  0
 29 30  1  0  0  0
 30 31  1  0  0  0
 31 32  2  0  0  0
 31 28  1  0  0  0
 28  1  1  0  0  0
  1  2  1  0  0  0
  3  2  1  0  0  0
  3  4  1  0  0  0
  4  5  2  0  0  0
  4  6  1  0  0  0
  6 18  1  0  0  0
 18 19  2  0  0  0
 19 20  1  0  0  0
 20 21  2  0  0  0
 21 22  1  0  0  0
 22 23  2  0  0  0
 23 24  1  0  0  0
 24 25  2  0  0  0
 25 26  1  0  0  0
 26 27  2  0  0  0
  6  7  1  0  0  0
  7  8  1  0  0  0
  8 34  1  0  0  0
 34 35  1  0  0  0
 35 36  2  0  0  0
 36 37  1  0  0  0
 37 38  2  0  0  0
 38 39  1  0  0  0
 39 40  2  0  0  0
  3  9  1  0  0  0
  9 10  2  0  0  0
 10 11  1  0  0  0
 11 12  1  0  0  0
 11 13  2  0  0  0
 13 14  1  0  0  0
 14 15  2  0  0  0
 15 16  1  0  0  0
 16 17  2  0  0  0
 16  1  1  0  0  0
  8  3  1  0  0  0
 40 35  1  0  0  0
 15  9  1  0  0  0
 27 18  1  0  0  0
 27 22  1  0  0  0
 30 33  1  0  0  0
M  END
> <minimizedAffinity>
-8.39406

> <CNNscore>
0.2412759066

> <CNNaffinity>
6.7366104126

> <CNN_VS>
1.6253818274

> <CNNaffinity_variance>
0.3324005604

$$$$



 40 45  0  0  0  0  0  0  0  0999 V2000
   10.0583    0.4220   22.7283 N   0  0  0  0  0  0  0  0  0  0  0  0
    8.8942   -0.5098   22.5651 C   0  0  0  0  0  0  0  0  0  0  0  0
    8.8215   -1.7685   23.3777 C   0  0  0  0  0  0  0  0  0  0  0  0
    8.6129   -3.0569   24.1170 C   0  0  0  0  0  0  0  0  0  0  0  0
    9.1539   -3.7440   24.9606 O   0  0  0  0  0  0  0  0  0  0  0  0
    7.3241   -3.6602   23.6427 N   0  0  0  0  0  0  0  0  0  0  0  0
    6.7361   -2.7448   22.6102 C   0  0  0  0  0  0  0  0  0  0  0  0
    7.6615   -1.5757   22.4464 C   0  0  0  0  0  0  0  0  0  0  0  0
    9.9128   -2.0955   24.3535 C   0  0  0  0  0  0  0  0  0  0  0  0
    9.8400   -3.3542   25.1661 C   0  0  0  0  0  0  0  0  0  0  0  0
   10.9313   -3.6811   26.1419 C   0  0  0  0  0  0  0  0  0  0  0  0
   10.8585   -4.9399   26.9545 Cl  0  0  0  0  0  0  0  0  0  0  0  0
   12.0953   -2.7492   26.3051 C   0  0  0  0  0  0  0  0  0  0  0  0
   12.1681   -1.4905   25.4925 C   0  0  0  0  0  0  0  0  0  0  0  0
   11.0768   -1.1637   24.5167 C   0  0  0  0  0  0  0  0  0  0  0  0
   11.1496    0.0951   23.7041 C   0  0  0  0  0  0  0  0  0  0  0  0
   12.3136    1.0269   23.8673 O   0  0  0  0  0  0  0  0  0  0  0  0
    6.7281   -4.9522   24.1176 C   0  0  0  0  0  0  0  0  0  0  0  0
    7.2573   -6.2571   23.6008 C   0  0  0  0  0  0  0  0  0  0  0  0
    6.6612   -7.5491   24.0756 N   0  0  0  0  0  0  0  0  0  0  0  0
    5.5359   -7.5361   25.0673 C   0  0  0  0  0  0  0  0  0  0  0  0
    5.0067   -6.2312   25.5842 C   0  0  0  0  0  0  0  0  0  0  0  0
    3.8813   -6.2183   26.5759 C   0  0  0  0  0  0  0  0  0  0  0  0
    3.3522   -4.9133   27.0927 C   0  0  0  0  0  0  0  0  0  0  0  0
    3.9482   -3.6213   26.6178 C   0  0  0  0  0  0  0  0  0  0  0  0
    5.0735   -3.6343   25.6261 C   0  0  0  0  0  0  0  0  0  0  0  0
    5.6028   -4.9392   25.1093 C   0  0  0  0  0  0  0  0  0  0  0  0
   10.1310    1.6808   21.9157 C   0  0  0  0  0  0  0  0  0  0  0  0
   10.5484    5.4685   23.0242 C   0  0  0  0  0  0  0  0  0  0  0  0
   10.8213    4.1423   22.3787 N   0  0  0  0  0  0  0  0  0  0  0  0
    9.8581    3.0070   22.5612 C   0  0  0  0  0  0  0  0  0  0  0  0
    8.6220    3.1979   23.3892 O   0  0  0  0  0  0  0  0  0  0  0  0
   11.6327    4.0170   21.8353 H   0  0  0  0  0  0  0  0  0  0  0  0
    7.4619   -0.4171   21.5148 C   0  0  0  0  0  0  0  0  0  0  0  0
    6.1048    0.2056   21.3722 C   0  0  0  0  0  0  0  0  0  0  0  0
    5.2670    0.4651   22.5891 C   0  0  0  0  0  0  0  0  0  0  0  0
    3.9098    1.0878   22.4464 C   0  0  0  0  0  0  0  0  0  0  0  0
    3.3904    1.4508   21.0868 C   0  0  0  0  0  0  0  0  0  0  0  0
    4.2281    1.1913   19.8699 C   0  0  0  0  0  0  0  0  0  0  0  0
    5.5853    0.5687   20.0126 C   0  0  0  0  0  0  0  0  0  0  0  0
 29 30  1  0  0  0
 30 31  1  0  0  0
 31 32  2  0  0  0
 31 28  1  0  0  0
 28  1  1  0  0  0
  1  2  1  0  0  0
  3  2  1  0  0  0
  3  4  1  0  0  0
  4  5  2  0  0  0
  4  6  1  0  0  0
  6 18  1  0  0  0
 18 19  2  0  0  0
 19 20  1  0  0  0
 20 21  2  0  0  0
 21 22  1  0  0  0
 22 23  2  0  0  0
 23 24  1  0  0  0
 24 25  2  0  0  0
 25 26  1  0  0  0
 26 27  2  0  0  0
  6  7  1  0  0  0
  7  8  1  0  0  0
  8 34  1  0  0  0
 34 35  1  0  0  0
 35 36  2  0  0  0
 36 37  1  0  0  0
 37 38  2  0  0  0
 38 39  1  0  0  0
 39 40  2  0  0  0
  3  9  1  0  0  0
  9 10  2  0  0  0
 10 11  1  0  0  0
 11 12  1  0  0  0
 11 13  2  0  0  0
 13 14  1  0  0  0
 14 15  2  0  0  0
 15 16  1  0  0  0
 16 17  2  0  0  0
 16  1  1  0  0  0
  8  3  1  0  0  0
 40 35  1  0  0  0
 15  9  1  0  0  0
 27 18  1  0  0  0
 27 22  1  0  0  0
 30 33  1  0  0  0
M  END
> <minimizedAffinity>
-8.82384

> <CNNscore>
0.2386784703

> <CNNaffinity>
6.8127050400

> <CNN_VS>
1.6260460615

> <CNNaffinity_variance>
0.3613412082

$$$$



 40 45  0  0  0  0  0  0  0  0999 V2000
    8.7285    0.3212   22.8597 N   0  0  0  0  0  0  0  0  0  0  0  0
    8.5669   -1.0130   23.5259 C   0  0  0  0  0  0  0  0  0  0  0  0
    7.2783   -1.3576   24.2118 C   0  0  0  0  0  0  0  0  0  0  0  0
    6.0550   -1.8406   24.9331 C   0  0  0  0  0  0  0  0  0  0  0  0
    4.9370   -1.4643   25.2247 O   0  0  0  0  0  0  0  0  0  0  0  0
    6.3322   -3.2246   25.4407 N   0  0  0  0  0  0  0  0  0  0  0  0
    7.7270   -3.5970   25.0333 C   0  0  0  0  0  0  0  0  0  0  0  0
    8.3117   -2.4431   24.2738 C   0  0  0  0  0  0  0  0  0  0  0  0
    6.1512   -0.3680   24.2316 C   0  0  0  0  0  0  0  0  0  0  0  0
    4.8625   -0.7126   24.9176 C   0  0  0  0  0  0  0  0  0  0  0  0
    3.7355    0.2770   24.9374 C   0  0  0  0  0  0  0  0  0  0  0  0
    2.4467   -0.0676   25.6234 Cl  0  0  0  0  0  0  0  0  0  0  0  0
    3.8971    1.6112   24.2712 C   0  0  0  0  0  0  0  0  0  0  0  0
    5.1857    1.9558   23.5852 C   0  0  0  0  0  0  0  0  0  0  0  0
    6.3128    0.9662   23.5655 C   0  0  0  0  0  0  0  0  0  0  0  0
    7.6015    1.3108   22.8795 C   0  0  0  0  0  0  0  0  0  0  0  0
    7.7631    2.6450   22.2133 O   0  0  0  0  0  0  0  0  0  0  0  0
    5.3817   -4.0851   26.2192 C   0  0  0  0  0  0  0  0  0  0  0  0
    4.6952   -5.2391   25.5505 C   0  0  0  0  0  0  0  0  0  0  0  0
    3.7447   -6.0996   26.3290 N   0  0  0  0  0  0  0  0  0  0  0  0
    3.4805   -5.8060   27.7761 C   0  0  0  0  0  0  0  0  0  0  0  0
    4.1670   -4.6520   28.4447 C   0  0  0  0  0  0  0  0  0  0  0  0
    3.9028   -4.3584   29.8918 C   0  0  0  0  0  0  0  0  0  0  0  0
    4.5893   -3.2044   30.5604 C   0  0  0  0  0  0  0  0  0  0  0  0
    5.5398   -2.3439   29.7819 C   0  0  0  0  0  0  0  0  0  0  0  0
    5.8040   -2.6374   28.3349 C   0  0  0  0  0  0  0  0  0  0  0  0
    5.1175   -3.7915   27.6662 C   0  0  0  0  0  0  0  0  0  0  0  0
   10.0173    0.6658   22.1737 C   0  0  0  0  0  0  0  0  0  0  0  0
   11.5051    4.3192   22.6085 C   0  0  0  0  0  0  0  0  0  0  0  0
   10.6691    3.1799   22.1056 N   0  0  0  0  0  0  0  0  0  0  0  0
   10.8533    1.8052   22.6767 C   0  0  0  0  0  0  0  0  0  0  0  0
   11.8736    1.5697   23.7508 O   0  0  0  0  0  0  0  0  0  0  0  0
    9.9995    3.3343   21.4006 H   0  0  0  0  0  0  0  0  0  0  0  0
    9.6881   -2.3850   23.6804 C   0  0  0  0  0  0  0  0  0  0  0  0
   10.8918   -2.5457   24.5608 C   0  0  0  0  0  0  0  0  0  0  0  0
   10.8186   -3.4167   25.7798 C   0  0  0  0  0  0  0  0  0  0  0  0
   12.0223   -3.5774   26.6602 C   0  0  0  0  0  0  0  0  0  0  0  0
   13.2993   -2.8671   26.3215 C   0  0  0  0  0  0  0  0  0  0  0  0
   13.3727   -1.9961   25.1026 C   0  0  0  0  0  0  0  0  0  0  0  0
   12.1689   -1.8354   24.2221 C   0  0  0  0  0  0  0  0  0  0  0  0
 29 30  1  0  0  0
 30 31  1  0  0  0
 31 32  2  0  0  0
 31 28  1  0  0  0
 28  1  1  0  0  0
  1  2  1  0  0  0
  3  2  1  0  0  0
  3  4  1  0  0  0
  4  5  2  0  0  0
  4  6  1  0  0  0
  6 18  1  0  0  0
 18 19  2  0  0  0
 19 20  1  0  0  0
 20 21  2  0  0  0
 21 22  1  0  0  0
 22 23  2  0  0  0
 23 24  1  0  0  0
 24 25  2  0  0  0
 25 26  1  0  0  0
 26 27  2  0  0  0
  6  7  1  0  0  0
  7  8  1  0  0  0
  8 34  1  0  0  0
 34 35  1  0  0  0
 35 36  2  0  0  0
 36 37  1  0  0  0
 37 38  2  0  0  0
 38 39  1  0  0  0
 39 40  2  0  0  0
  3  9  1  0  0  0
  9 10  2  0  0  0
 10 11  1  0  0  0
 11 12  1  0  0  0
 11 13  2  0  0  0
 13 14  1  0  0  0
 14 15  2  0  0  0
 15 16  1  0  0  0
 16 17  2  0  0  0
 16  1  1  0  0  0
  8  3  1  0  0  0
 40 35  1  0  0  0
 15  9  1  0  0  0
 27 18  1  0  0  0
 27 22  1  0  0  0
 30 33  1  0  0  0
M  END
> <minimizedAffinity>
-7.62904

> <CNNscore>
0.2313965857

> <CNNaffinity>
6.7543897629

> <CNN_VS>
1.5629427433

> <CNNaffinity_variance>
0.0764272735

$$$$



 40 45  0  0  0  0  0  0  0  0999 V2000
    9.9929    0.9847   23.1717 N   0  0  0  0  0  0  0  0  0  0  0  0
    8.6299    0.4088   23.4181 C   0  0  0  0  0  0  0  0  0  0  0  0
    8.4709   -0.7871   24.3095 C   0  0  0  0  0  0  0  0  0  0  0  0
    8.1579   -1.9737   25.1720 C   0  0  0  0  0  0  0  0  0  0  0  0
    8.7224   -2.7883   25.8749 O   0  0  0  0  0  0  0  0  0  0  0  0
    6.6752   -2.1975   25.1322 N   0  0  0  0  0  0  0  0  0  0  0  0
    6.0719   -1.1491   24.2451 C   0  0  0  0  0  0  0  0  0  0  0  0
    7.1817   -0.2774   23.7367 C   0  0  0  0  0  0  0  0  0  0  0  0
    9.6749   -1.4071   24.9546 C   0  0  0  0  0  0  0  0  0  0  0  0
    9.5159   -2.6029   25.8460 C   0  0  0  0  0  0  0  0  0  0  0  0
   10.7199   -3.2228   26.4910 C   0  0  0  0  0  0  0  0  0  0  0  0
   10.5609   -4.4187   27.3825 Cl  0  0  0  0  0  0  0  0  0  0  0  0
   12.0828   -2.6469   26.2447 C   0  0  0  0  0  0  0  0  0  0  0  0
   12.2418   -1.4511   25.3533 C   0  0  0  0  0  0  0  0  0  0  0  0
   11.0379   -0.8312   24.7082 C   0  0  0  0  0  0  0  0  0  0  0  0
   11.1968    0.3647   23.8167 C   0  0  0  0  0  0  0  0  0  0  0  0
   12.5598    0.9406   23.5704 O   0  0  0  0  0  0  0  0  0  0  0  0
    5.9272   -3.2796   25.8529 C   0  0  0  0  0  0  0  0  0  0  0  0
    5.5551   -4.5417   25.1327 C   0  0  0  0  0  0  0  0  0  0  0  0
    4.8071   -5.6238   25.8535 N   0  0  0  0  0  0  0  0  0  0  0  0
    4.4312   -5.4439   27.2944 C   0  0  0  0  0  0  0  0  0  0  0  0
    4.8033   -4.1817   28.0146 C   0  0  0  0  0  0  0  0  0  0  0  0
    4.4274   -4.0018   29.4556 C   0  0  0  0  0  0  0  0  0  0  0  0
    4.7996   -2.7396   30.1757 C   0  0  0  0  0  0  0  0  0  0  0  0
    5.5475   -1.6575   29.4549 C   0  0  0  0  0  0  0  0  0  0  0  0
    5.9234   -1.8375   28.0140 C   0  0  0  0  0  0  0  0  0  0  0  0
    5.5513   -3.0996   27.2938 C   0  0  0  0  0  0  0  0  0  0  0  0
   10.1518    2.1806   22.2802 C   0  0  0  0  0  0  0  0  0  0  0  0
   10.5708    5.9964   23.2872 C   0  0  0  0  0  0  0  0  0  0  0  0
   10.8847    4.6254   22.7659 N   0  0  0  0  0  0  0  0  0  0  0  0
    9.8380    3.5516   22.8015 C   0  0  0  0  0  0  0  0  0  0  0  0
    8.4772    3.8489   23.3585 O   0  0  0  0  0  0  0  0  0  0  0  0
   11.7778    4.4303   22.4004 H   0  0  0  0  0  0  0  0  0  0  0  0
    7.0291    0.8976   22.8168 C   0  0  0  0  0  0  0  0  0  0  0  0
    5.7386    1.1133   22.0835 C   0  0  0  0  0  0  0  0  0  0  0  0
    4.5862    1.7809   22.7736 C   0  0  0  0  0  0  0  0  0  0  0  0
    3.2956    1.9966   22.0401 C   0  0  0  0  0  0  0  0  0  0  0  0
    3.1575    1.5447   20.6165 C   0  0  0  0  0  0  0  0  0  0  0  0
    4.3098    0.8771   19.9263 C   0  0  0  0  0  0  0  0  0  0  0  0
    5.6004    0.6614   20.6597 C   0  0  0  0  0  0  0  0  0  0  0  0
 29 30  1  0  0  0
 30 31  1  0  0  0
 31 32  2  0  0  0
 31 28  1  0  0  0
 28  1  1  0  0  0
  1  2  1  0  0  0
  3  2  1  0  0  0
  3  4  1  0  0  0
  4  5  2  0  0  0
  4  6  1  0  0  0
  6 18  1  0  0  0
 18 19  2  0  0  0
 19 20  1  0  0  0
 20 21  2  0  0  0
 21 22  1  0  0  0
 22 23  2  0  0  0
 23 24  1  0  0  0
 24 25  2  0  0  0
 25 26  1  0  0  0
 26 27  2  0  0  0
  6  7  1  0  0  0
  7  8  1  0  0  0
  8 34  1  0  0  0
 34 35  1  0  0  0
 35 36  2  0  0  0
 36 37  1  0  0  0
 37 38  2  0  0  0
 38 39  1  0  0  0
 39 40  2  0  0  0
  3  9  1  0  0  0
  9 10  2  0  0  0
 10 11  1  0  0  0
 11 12  1  0  0  0
 11 13  2  0  0  0
 13 14  1  0  0  0
 14 15  2  0  0  0
 15 16  1  0  0  0
 16 17  2  0  0  0
 16  1  1  0  0  0
  8  3  1  0  0  0
 40 35  1  0  0  0
 15  9  1  0  0  0
 27 18  1  0  0  0
 27 22  1  0  0  0
 30 33  1  0  0  0
M  END
> <minimizedAffinity>
-8.00194

> <CNNscore>
0.2271589935

> <CNNaffinity>
6.7427301407

> <CNN_VS>
1.5316717625

> <CNNaffinity_variance>
0.2062656581

$$$$
