


 21 23  0  0  0  0  0  0  0  0999 V2000
    9.0012   -2.7309   23.2420 C   0  0  0  0  0  0  0  0  0  0  0  0
   10.2840   -1.9585   23.3314 C   0  0  0  0  0  0  0  0  0  0  0  0
   10.5786   -0.8761   22.3356 C   0  0  0  0  0  0  0  0  0  0  0  0
   11.8613   -0.1037   22.4249 N   0  0  0  0  0  0  0  0  0  0  0  0
   12.8494   -0.4136   23.5100 C   0  0  0  0  0  0  0  0  0  0  0  0
   12.5548   -1.4960   24.5059 C   0  0  0  0  0  0  0  0  0  0  0  0
   13.5429   -1.8059   25.5910 C   0  0  0  0  0  0  0  0  0  0  0  0
   13.2483   -2.8883   26.5868 C   0  0  0  0  0  0  0  0  0  0  0  0
   11.9656   -3.6607   26.4975 C   0  0  0  0  0  0  0  0  0  0  0  0
   10.9775   -3.3508   25.4124 C   0  0  0  0  0  0  0  0  0  0  0  0
   11.2721   -2.2684   24.4166 C   0  0  0  0  0  0  0  0  0  0  0  0
    5.5306   -2.2983   27.3672 C   0  0  0  0  0  0  0  0  0  0  0  0
    6.8431   -3.0001   27.1816 C   0  0  0  0  0  0  0  0  0  0  0  0
    7.5625   -2.9104   25.8684 C   0  0  0  0  0  0  0  0  0  0  0  0
    6.9693   -2.1188   24.7408 N   0  0  0  0  0  0  0  0  0  0  0  0
    7.6886   -2.0291   23.4276 C   0  0  0  0  0  0  0  0  0  0  0  0
    7.0953   -1.2375   22.3000 O   0  0  0  0  0  0  0  0  0  0  0  0
    5.6566   -1.4169   24.9264 C   0  0  0  0  0  0  0  0  0  0  0  0
    4.9373   -1.5067   26.2396 C   0  0  0  0  0  0  0  0  0  0  0  0
    5.5699   -2.2242   29.9639 C   0  0  0  0  0  0  0  0  0  0  0  0
    4.8112   -2.3880   28.6804 C   0  0  0  0  0  0  0  0  0  0  0  0
 20 21  1  0  0  0
 21 12  1  0  0  0
 12 13  1  0  0  0
 13 14  1  0  0  0
 14 15  1  0  0  0
 15 16  1  0  0  0
 16 17  2  0  0  0
 16  1  1  0  0  0
  1  2  1  0  0  0
  2  3  2  0  0  0
  3  4  1  0  0  0
  4  5  2  0  0  0
  5  6  1  0  0  0
  6  7  2  0  0  0
  7  8  1  0  0  0
  8  9  2  0  0  0
  9 10  1  0  0  0
 10 11  2  0  0  0
 15 18  1  0  0  0
 18 19  1  0  0  0
 19 12  1  0  0  0
 11  2  1  0  0  0
 11  6  1  0  0  0
M  END
> <minimizedAffinity>
-6.19409

> <CNNscore>
0.7743198276

> <CNNaffinity>
5.6584930420

> <CNN_VS>
4.3814835548

> <CNNaffinity_variance>
0.0877792984

$$$$



 21 23  0  0  0  0  0  0  0  0999 V2000
    7.3551   -0.0657   21.4567 C   0  0  0  0  0  0  0  0  0  0  0  0
    6.4847    0.2668   20.2812 C   0  0  0  0  0  0  0  0  0  0  0  0
    6.7941   -0.3105   18.9318 C   0  0  0  0  0  0  0  0  0  0  0  0
    5.9237    0.0220   17.7563 N   0  0  0  0  0  0  0  0  0  0  0  0
    4.7438    0.9317   17.9302 C   0  0  0  0  0  0  0  0  0  0  0  0
    4.4343    1.5091   19.2797 C   0  0  0  0  0  0  0  0  0  0  0  0
    3.2545    2.4188   19.4536 C   0  0  0  0  0  0  0  0  0  0  0  0
    2.9451    2.9960   20.8030 C   0  0  0  0  0  0  0  0  0  0  0  0
    3.8155    2.6636   21.9785 C   0  0  0  0  0  0  0  0  0  0  0  0
    4.9953    1.7539   21.8046 C   0  0  0  0  0  0  0  0  0  0  0  0
    5.3048    1.1766   20.4552 C   0  0  0  0  0  0  0  0  0  0  0  0
   11.9562   -0.8760   24.1812 C   0  0  0  0  0  0  0  0  0  0  0  0
   10.7750   -1.7408   23.8542 C   0  0  0  0  0  0  0  0  0  0  0  0
    9.6351   -1.1824   23.0551 C   0  0  0  0  0  0  0  0  0  0  0  0
    9.6763    0.2407   22.5829 N   0  0  0  0  0  0  0  0  0  0  0  0
    8.5363    0.7991   21.7837 C   0  0  0  0  0  0  0  0  0  0  0  0
    8.5776    2.2223   21.3115 O   0  0  0  0  0  0  0  0  0  0  0  0
   10.8575    1.1055   22.9098 C   0  0  0  0  0  0  0  0  0  0  0  0
   11.9975    0.5472   23.7090 C   0  0  0  0  0  0  0  0  0  0  0  0
   12.8235   -2.3431   26.1422 C   0  0  0  0  0  0  0  0  0  0  0  0
   13.0962   -1.4344   24.9804 C   0  0  0  0  0  0  0  0  0  0  0  0
 20 21  1  0  0  0
 21 12  1  0  0  0
 12 13  1  0  0  0
 13 14  1  0  0  0
 14 15  1  0  0  0
 15 16  1  0  0  0
 16 17  2  0  0  0
 16  1  1  0  0  0
  1  2  1  0  0  0
  2  3  2  0  0  0
  3  4  1  0  0  0
  4  5  2  0  0  0
  5  6  1  0  0  0
  6  7  2  0  0  0
  7  8  1  0  0  0
  8  9  2  0  0  0
  9 10  1  0  0  0
 10 11  2  0  0  0
 15 18  1  0  0  0
 18 19  1  0  0  0
 19 12  1  0  0  0
 11  2  1  0  0  0
 11  6  1  0  0  0
M  END
> <minimizedAffinity>
-7.24375

> <CNNscore>
0.7235445380

> <CNNaffinity>
5.4757695198

> <CNN_VS>
3.9619631767

> <CNNaffinity_variance>
0.1539286375

$$$$



 21 23  0  0  0  0  0  0  0  0999 V2000
    8.9874   -2.6981   23.1688 C   0  0  0  0  0  0  0  0  0  0  0  0
   10.2686   -1.9283   23.2950 C   0  0  0  0  0  0  0  0  0  0  0  0
   10.5826   -0.8301   22.3228 C   0  0  0  0  0  0  0  0  0  0  0  0
   11.8638   -0.0603   22.4490 N   0  0  0  0  0  0  0  0  0  0  0  0
   12.8310   -0.3887   23.5475 C   0  0  0  0  0  0  0  0  0  0  0  0
   12.5170   -1.4870   24.5197 C   0  0  0  0  0  0  0  0  0  0  0  0
   13.4842   -1.8155   25.6182 C   0  0  0  0  0  0  0  0  0  0  0  0
   13.1702   -2.9137   26.5904 C   0  0  0  0  0  0  0  0  0  0  0  0
   11.8890   -3.6835   26.4642 C   0  0  0  0  0  0  0  0  0  0  0  0
   10.9218   -3.3550   25.3657 C   0  0  0  0  0  0  0  0  0  0  0  0
   11.2358   -2.2568   24.3935 C   0  0  0  0  0  0  0  0  0  0  0  0
    6.5367    0.6639   26.6244 C   0  0  0  0  0  0  0  0  0  0  0  0
    7.4130    0.8638   25.4235 C   0  0  0  0  0  0  0  0  0  0  0  0
    7.9378   -0.3235   24.6719 C   0  0  0  0  0  0  0  0  0  0  0  0
    7.5863   -1.7108   25.1212 N   0  0  0  0  0  0  0  0  0  0  0  0
    8.1111   -2.8981   24.3696 C   0  0  0  0  0  0  0  0  0  0  0  0
    7.7597   -4.2854   24.8190 O   0  0  0  0  0  0  0  0  0  0  0  0
    6.7100   -1.9108   26.3221 C   0  0  0  0  0  0  0  0  0  0  0  0
    6.1852   -0.7235   27.0737 C   0  0  0  0  0  0  0  0  0  0  0  0
    6.3225    2.0127   28.8345 C   0  0  0  0  0  0  0  0  0  0  0  0
    6.0119    1.8512   27.3759 C   0  0  0  0  0  0  0  0  0  0  0  0
 20 21  1  0  0  0
 21 12  1  0  0  0
 12 13  1  0  0  0
 13 14  1  0  0  0
 14 15  1  0  0  0
 15 16  1  0  0  0
 16 17  2  0  0  0
 16  1  1  0  0  0
  1  2  1  0  0  0
  2  3  2  0  0  0
  3  4  1  0  0  0
  4  5  2  0  0  0
  5  6  1  0  0  0
  6  7  2  0  0  0
  7  8  1  0  0  0
  8  9  2  0  0  0
  9 10  1  0  0  0
 10 11  2  0  0  0
 15 18  1  0  0  0
 18 19  1  0  0  0
 19 12  1  0  0  0
 11  2  1  0  0  0
 11  6  1  0  0  0
M  END
> <minimizedAffinity>
-6.27549

> <CNNscore>
0.7114199400

> <CNNaffinity>
5.3716230392

> <CNN_VS>
3.8214797974

> <CNNaffinity_variance>
0.0820612982

$$$$



 21 23  0  0  0  0  0  0  0  0999 V2000
    6.2267   -1.1139   21.3012 C   0  0  0  0  0  0  0  0  0  0  0  0
    5.6805   -0.3924   20.1049 C   0  0  0  0  0  0  0  0  0  0  0  0
    6.1243   -0.7829   18.7263 C   0  0  0  0  0  0  0  0  0  0  0  0
    5.5781   -0.0615   17.5300 N   0  0  0  0  0  0  0  0  0  0  0  0
    4.5879    1.0504   17.7123 C   0  0  0  0  0  0  0  0  0  0  0  0
    4.1440    1.4409   19.0909 C   0  0  0  0  0  0  0  0  0  0  0  0
    3.1538    2.5528   19.2732 C   0  0  0  0  0  0  0  0  0  0  0  0
    2.7100    2.9433   20.6517 C   0  0  0  0  0  0  0  0  0  0  0  0
    3.2562    2.2218   21.8480 C   0  0  0  0  0  0  0  0  0  0  0  0
    4.2464    1.1099   21.6658 C   0  0  0  0  0  0  0  0  0  0  0  0
    4.6902    0.7195   20.2872 C   0  0  0  0  0  0  0  0  0  0  0  0
    9.5282   -3.5176   24.8470 C   0  0  0  0  0  0  0  0  0  0  0  0
    8.1250   -3.7822   24.3878 C   0  0  0  0  0  0  0  0  0  0  0  0
    7.4922   -2.8927   23.3589 C   0  0  0  0  0  0  0  0  0  0  0  0
    8.2627   -1.7387   22.7892 N   0  0  0  0  0  0  0  0  0  0  0  0
    7.6299   -0.8493   21.7604 C   0  0  0  0  0  0  0  0  0  0  0  0
    8.4005    0.3048   21.1907 O   0  0  0  0  0  0  0  0  0  0  0  0
    9.6660   -1.4741   23.2485 C   0  0  0  0  0  0  0  0  0  0  0  0
   10.2987   -2.3635   24.2773 C   0  0  0  0  0  0  0  0  0  0  0  0
   11.4717   -4.0226   26.4955 C   0  0  0  0  0  0  0  0  0  0  0  0
   10.1609   -4.4070   25.8758 C   0  0  0  0  0  0  0  0  0  0  0  0
 20 21  1  0  0  0
 21 12  1  0  0  0
 12 13  1  0  0  0
 13 14  1  0  0  0
 14 15  1  0  0  0
 15 16  1  0  0  0
 16 17  2  0  0  0
 16  1  1  0  0  0
  1  2  1  0  0  0
  2  3  2  0  0  0
  3  4  1  0  0  0
  4  5  2  0  0  0
  5  6  1  0  0  0
  6  7  2  0  0  0
  7  8  1  0  0  0
  8  9  2  0  0  0
  9 10  1  0  0  0
 10 11  2  0  0  0
 15 18  1  0  0  0
 18 19  1  0  0  0
 19 12  1  0  0  0
 11  2  1  0  0  0
 11  6  1  0  0  0
M  END
> <minimizedAffinity>
-6.69645

> <CNNscore>
0.7030624747

> <CNNaffinity>
5.2280020714

> <CNN_VS>
3.6756119728

> <CNNaffinity_variance>
0.0927673057

$$$$



 21 23  0  0  0  0  0  0  0  0999 V2000
    9.1298   -1.9904   22.3478 C   0  0  0  0  0  0  0  0  0  0  0  0
   10.4743   -1.8654   23.0009 C   0  0  0  0  0  0  0  0  0  0  0  0
   11.5442   -1.0309   22.3614 C   0  0  0  0  0  0  0  0  0  0  0  0
   12.8887   -0.9059   23.0145 N   0  0  0  0  0  0  0  0  0  0  0  0
   13.1634   -1.6154   24.3072 C   0  0  0  0  0  0  0  0  0  0  0  0
   12.0936   -2.4499   24.9468 C   0  0  0  0  0  0  0  0  0  0  0  0
   12.3684   -3.1594   26.2395 C   0  0  0  0  0  0  0  0  0  0  0  0
   11.2985   -3.9938   26.8791 C   0  0  0  0  0  0  0  0  0  0  0  0
    9.9540   -4.1189   26.2260 C   0  0  0  0  0  0  0  0  0  0  0  0
    9.6793   -3.4094   24.9333 C   0  0  0  0  0  0  0  0  0  0  0  0
   10.7491   -2.5749   24.2937 C   0  0  0  0  0  0  0  0  0  0  0  0
    6.7377    2.0275   25.0652 C   0  0  0  0  0  0  0  0  0  0  0  0
    7.4888    0.7962   25.4770 C   0  0  0  0  0  0  0  0  0  0  0  0
    8.0358   -0.1327   24.4339 C   0  0  0  0  0  0  0  0  0  0  0  0
    7.8317    0.1698   22.9790 N   0  0  0  0  0  0  0  0  0  0  0  0
    8.3787   -0.7591   21.9360 C   0  0  0  0  0  0  0  0  0  0  0  0
    8.1745   -0.4566   20.4810 O   0  0  0  0  0  0  0  0  0  0  0  0
    7.0805    1.4011   22.5671 C   0  0  0  0  0  0  0  0  0  0  0  0
    6.5335    2.3300   23.6102 C   0  0  0  0  0  0  0  0  0  0  0  0
    6.4158    4.4345   25.9885 C   0  0  0  0  0  0  0  0  0  0  0  0
    6.1907    2.9564   26.1082 C   0  0  0  0  0  0  0  0  0  0  0  0
 20 21  1  0  0  0
 21 12  1  0  0  0
 12 13  1  0  0  0
 13 14  1  0  0  0
 14 15  1  0  0  0
 15 16  1  0  0  0
 16 17  2  0  0  0
 16  1  1  0  0  0
  1  2  1  0  0  0
  2  3  2  0  0  0
  3  4  1  0  0  0
  4  5  2  0  0  0
  5  6  1  0  0  0
  6  7  2  0  0  0
  7  8  1  0  0  0
  8  9  2  0  0  0
  9 10  1  0  0  0
 10 11  2  0  0  0
 15 18  1  0  0  0
 18 19  1  0  0  0
 19 12  1  0  0  0
 11  2  1  0  0  0
 11  6  1  0  0  0
M  END
> <minimizedAffinity>
-6.21375

> <CNNscore>
0.6499758959

> <CNNaffinity>
5.4056358337

> <CNN_VS>
3.5135328770

> <CNNaffinity_variance>
0.0299979635

$$$$



 21 23  0  0  0  0  0  0  0  0999 V2000
    9.7465   -1.8596   22.3167 C   0  0  0  0  0  0  0  0  0  0  0  0
    9.7144   -2.6290   23.6039 C   0  0  0  0  0  0  0  0  0  0  0  0
    8.4665   -3.3533   24.0139 C   0  0  0  0  0  0  0  0  0  0  0  0
    8.4344   -4.1227   25.3011 N   0  0  0  0  0  0  0  0  0  0  0  0
    9.6502   -4.1678   26.1784 C   0  0  0  0  0  0  0  0  0  0  0  0
   10.8982   -3.4435   25.7685 C   0  0  0  0  0  0  0  0  0  0  0  0
   12.1140   -3.4886   26.6458 C   0  0  0  0  0  0  0  0  0  0  0  0
   13.3619   -2.7643   26.2359 C   0  0  0  0  0  0  0  0  0  0  0  0
   13.3940   -1.9950   24.9487 C   0  0  0  0  0  0  0  0  0  0  0  0
   12.1782   -1.9498   24.0713 C   0  0  0  0  0  0  0  0  0  0  0  0
   10.9303   -2.6741   24.4813 C   0  0  0  0  0  0  0  0  0  0  0  0
   11.1409    3.3372   22.8636 C   0  0  0  0  0  0  0  0  0  0  0  0
   11.8879    2.0419   22.9820 C   0  0  0  0  0  0  0  0  0  0  0  0
   11.1741    0.7414   22.7602 C   0  0  0  0  0  0  0  0  0  0  0  0
    9.7133    0.7362   22.4201 N   0  0  0  0  0  0  0  0  0  0  0  0
    8.9994   -0.5643   22.1983 C   0  0  0  0  0  0  0  0  0  0  0  0
    7.5385   -0.5695   21.8581 O   0  0  0  0  0  0  0  0  0  0  0  0
    8.9661    2.0315   22.3016 C   0  0  0  0  0  0  0  0  0  0  0  0
    9.6799    3.3320   22.5234 C   0  0  0  0  0  0  0  0  0  0  0  0
   11.6036    5.7971   22.1674 C   0  0  0  0  0  0  0  0  0  0  0  0
   11.8547    4.6377   23.0853 C   0  0  0  0  0  0  0  0  0  0  0  0
 20 21  1  0  0  0
 21 12  1  0  0  0
 12 13  1  0  0  0
 13 14  1  0  0  0
 14 15  1  0  0  0
 15 16  1  0  0  0
 16 17  2  0  0  0
 16  1  1  0  0  0
  1  2  1  0  0  0
  2  3  2  0  0  0
  3  4  1  0  0  0
  4  5  2  0  0  0
  5  6  1  0  0  0
  6  7  2  0  0  0
  7  8  1  0  0  0
  8  9  2  0  0  0
  9 10  1  0  0  0
 10 11  2  0  0  0
 15 18  1  0  0  0
 18 19  1  0  0  0
 19 12  1  0  0  0
 11  2  1  0  0  0
 11  6  1  0  0  0
M  END
> <minimizedAffinity>
-7.11460

> <CNNscore>
0.6434418559

> <CNNaffinity>
5.4816236496

> <CNN_VS>
3.5271060467

> <CNNaffinity_variance>
0.1422209144

$$$$



 21 23  0  0  0  0  0  0  0  0999 V2000
    7.7877    0.4643   21.5716 C   0  0  0  0  0  0  0  0  0  0  0  0
    6.8538    0.4911   20.3981 C   0  0  0  0  0  0  0  0  0  0  0  0
    7.1080   -0.3975   19.2168 C   0  0  0  0  0  0  0  0  0  0  0  0
    6.1741   -0.3707   18.0433 N   0  0  0  0  0  0  0  0  0  0  0  0
    4.9859    0.5448   18.0512 C   0  0  0  0  0  0  0  0  0  0  0  0
    4.7316    1.4335   19.2326 C   0  0  0  0  0  0  0  0  0  0  0  0
    3.5435    2.3490   19.2404 C   0  0  0  0  0  0  0  0  0  0  0  0
    3.2893    3.2377   20.4218 C   0  0  0  0  0  0  0  0  0  0  0  0
    4.2232    3.2109   21.5952 C   0  0  0  0  0  0  0  0  0  0  0  0
    5.4114    2.2954   21.5874 C   0  0  0  0  0  0  0  0  0  0  0  0
    5.6656    1.4067   20.4060 C   0  0  0  0  0  0  0  0  0  0  0  0
   11.9486   -1.3587   24.5066 C   0  0  0  0  0  0  0  0  0  0  0  0
   11.6553   -0.0626   23.8109 C   0  0  0  0  0  0  0  0  0  0  0  0
   10.3661    0.1131   23.0645 C   0  0  0  0  0  0  0  0  0  0  0  0
    9.3702   -1.0074   23.0137 N   0  0  0  0  0  0  0  0  0  0  0  0
    8.0810   -0.8318   22.2672 C   0  0  0  0  0  0  0  0  0  0  0  0
    7.0851   -1.9524   22.2165 O   0  0  0  0  0  0  0  0  0  0  0  0
    9.6635   -2.3036   23.7094 C   0  0  0  0  0  0  0  0  0  0  0  0
   10.9526   -2.4793   24.4558 C   0  0  0  0  0  0  0  0  0  0  0  0
   13.3855   -2.6524   26.2419 C   0  0  0  0  0  0  0  0  0  0  0  0
   13.2377   -1.5343   25.2530 C   0  0  0  0  0  0  0  0  0  0  0  0
 20 21  1  0  0  0
 21 12  1  0  0  0
 12 13  1  0  0  0
 13 14  1  0  0  0
 14 15  1  0  0  0
 15 16  1  0  0  0
 16 17  2  0  0  0
 16  1  1  0  0  0
  1  2  1  0  0  0
  2  3  2  0  0  0
  3  4  1  0  0  0
  4  5  2  0  0  0
  5  6  1  0  0  0
  6  7  2  0  0  0
  7  8  1  0  0  0
  8  9  2  0  0  0
  9 10  1  0  0  0
 10 11  2  0  0  0
 15 18  1  0  0  0
 18 19  1  0  0  0
 19 12  1  0  0  0
 11  2  1  0  0  0
 11  6  1  0  0  0
M  END
> <minimizedAffinity>
-7.20222

> <CNNscore>
0.6324706674

> <CNNaffinity>
5.3391985893

> <CNN_VS>
3.3768866062

> <CNNaffinity_variance>
0.0438912436

$$$$



 21 23  0  0  0  0  0  0  0  0999 V2000
    5.3446   -0.7384   22.0516 C   0  0  0  0  0  0  0  0  0  0  0  0
    5.1394   -0.1712   20.6783 C   0  0  0  0  0  0  0  0  0  0  0  0
    5.9327   -0.7020   19.5213 C   0  0  0  0  0  0  0  0  0  0  0  0
    5.7275   -0.1348   18.1479 N   0  0  0  0  0  0  0  0  0  0  0  0
    4.7289    0.9634   17.9316 C   0  0  0  0  0  0  0  0  0  0  0  0
    3.9355    1.4943   19.0886 C   0  0  0  0  0  0  0  0  0  0  0  0
    2.9369    2.5925   18.8723 C   0  0  0  0  0  0  0  0  0  0  0  0
    2.1436    3.1233   20.0293 C   0  0  0  0  0  0  0  0  0  0  0  0
    2.3488    2.5561   21.4027 C   0  0  0  0  0  0  0  0  0  0  0  0
    3.3474    1.4579   21.6190 C   0  0  0  0  0  0  0  0  0  0  0  0
    4.1407    0.9271   20.4620 C   0  0  0  0  0  0  0  0  0  0  0  0
   10.5813   -0.6121   23.3975 C   0  0  0  0  0  0  0  0  0  0  0  0
    9.5402    0.4435   23.1699 C   0  0  0  0  0  0  0  0  0  0  0  0
    8.1417    0.0495   22.7971 C   0  0  0  0  0  0  0  0  0  0  0  0
    7.7843   -1.4000   22.6520 N   0  0  0  0  0  0  0  0  0  0  0  0
    6.3858   -1.7940   22.2792 C   0  0  0  0  0  0  0  0  0  0  0  0
    6.0284   -3.2436   22.1341 O   0  0  0  0  0  0  0  0  0  0  0  0
    8.8254   -2.4556   22.8795 C   0  0  0  0  0  0  0  0  0  0  0  0
   10.2239   -2.0617   23.2523 C   0  0  0  0  0  0  0  0  0  0  0  0
   12.8977    0.3595   22.7340 C   0  0  0  0  0  0  0  0  0  0  0  0
   11.9798   -0.2181   23.7702 C   0  0  0  0  0  0  0  0  0  0  0  0
 20 21  1  0  0  0
 21 12  1  0  0  0
 12 13  1  0  0  0
 13 14  1  0  0  0
 14 15  1  0  0  0
 15 16  1  0  0  0
 16 17  2  0  0  0
 16  1  1  0  0  0
  1  2  1  0  0  0
  2  3  2  0  0  0
  3  4  1  0  0  0
  4  5  2  0  0  0
  5  6  1  0  0  0
  6  7  2  0  0  0
  7  8  1  0  0  0
  8  9  2  0  0  0
  9 10  1  0  0  0
 10 11  2  0  0  0
 15 18  1  0  0  0
 18 19  1  0  0  0
 19 12  1  0  0  0
 11  2  1  0  0  0
 11  6  1  0  0  0
M  END
> <minimizedAffinity>
-6.55311

> <CNNscore>
0.5881275535

> <CNNaffinity>
5.2524275780

> <CNN_VS>
3.0890974998

> <CNNaffinity_variance>
0.0892026350

$$$$



 21 23  0  0  0  0  0  0  0  0999 V2000
    8.4361   -3.5953   24.3187 C   0  0  0  0  0  0  0  0  0  0  0  0
    9.7846   -3.4498   24.9593 C   0  0  0  0  0  0  0  0  0  0  0  0
   10.1414   -4.2838   26.1539 C   0  0  0  0  0  0  0  0  0  0  0  0
   11.4898   -4.1382   26.7946 N   0  0  0  0  0  0  0  0  0  0  0  0
   12.4816   -3.1588   26.2406 C   0  0  0  0  0  0  0  0  0  0  0  0
   12.1249   -2.3247   25.0459 C   0  0  0  0  0  0  0  0  0  0  0  0
   13.1166   -1.3452   24.4918 C   0  0  0  0  0  0  0  0  0  0  0  0
   12.7599   -0.5113   23.2972 C   0  0  0  0  0  0  0  0  0  0  0  0
   11.4114   -0.6568   22.6566 C   0  0  0  0  0  0  0  0  0  0  0  0
   10.4197   -1.6363   23.2106 C   0  0  0  0  0  0  0  0  0  0  0  0
   10.7764   -2.4703   24.4052 C   0  0  0  0  0  0  0  0  0  0  0  0
    3.7688   -6.2344   23.6103 C   0  0  0  0  0  0  0  0  0  0  0  0
    4.9855   -6.0259   22.7581 C   0  0  0  0  0  0  0  0  0  0  0  0
    6.1357   -5.2157   23.2783 C   0  0  0  0  0  0  0  0  0  0  0  0
    6.0693   -4.6140   24.6507 N   0  0  0  0  0  0  0  0  0  0  0  0
    7.2195   -3.8038   25.1709 C   0  0  0  0  0  0  0  0  0  0  0  0
    7.1531   -3.2021   26.5434 O   0  0  0  0  0  0  0  0  0  0  0  0
    4.8526   -4.8225   25.5030 C   0  0  0  0  0  0  0  0  0  0  0  0
    3.7024   -5.6327   24.9828 C   0  0  0  0  0  0  0  0  0  0  0  0
    1.2726   -6.4072   22.9111 C   0  0  0  0  0  0  0  0  0  0  0  0
    2.6186   -7.0445   23.0901 C   0  0  0  0  0  0  0  0  0  0  0  0
 20 21  1  0  0  0
 21 12  1  0  0  0
 12 13  1  0  0  0
 13 14  1  0  0  0
 14 15  1  0  0  0
 15 16  1  0  0  0
 16 17  2  0  0  0
 16  1  1  0  0  0
  1  2  1  0  0  0
  2  3  2  0  0  0
  3  4  1  0  0  0
  4  5  2  0  0  0
  5  6  1  0  0  0
  6  7  2  0  0  0
  7  8  1  0  0  0
  8  9  2  0  0  0
  9 10  1  0  0  0
 10 11  2  0  0  0
 15 18  1  0  0  0
 18 19  1  0  0  0
 19 12  1  0  0  0
 11  2  1  0  0  0
 11  6  1  0  0  0
M  END
> <minimizedAffinity>
-6.42241

> <CNNscore>
0.5880306363

> <CNNaffinity>
5.3749198914

> <CNN_VS>
3.1606175900

> <CNNaffinity_variance>
0.0526384115

$$$$
