


 21 23  0  0  0  0  0  0  0  0999 V2000
   -6.4715   -2.0154  -21.7506 C   0  0  0  0  0  0  0  0  0  0  0  0
   -6.0112   -1.2161  -20.5676 C   0  0  0  0  0  0  0  0  0  0  0  0
   -6.6992   -1.3717  -19.2438 C   0  0  0  0  0  0  0  0  0  0  0  0
   -6.2389   -0.5725  -18.0609 N   0  0  0  0  0  0  0  0  0  0  0  0
   -5.0908    0.3824  -18.2018 C   0  0  0  0  0  0  0  0  0  0  0  0
   -4.4028    0.5381  -19.5256 C   0  0  0  0  0  0  0  0  0  0  0  0
   -3.2547    1.4930  -19.6665 C   0  0  0  0  0  0  0  0  0  0  0  0
   -2.5667    1.6486  -20.9903 C   0  0  0  0  0  0  0  0  0  0  0  0
   -3.0270    0.8493  -22.1733 C   0  0  0  0  0  0  0  0  0  0  0  0
   -4.1751   -0.1056  -22.0324 C   0  0  0  0  0  0  0  0  0  0  0  0
   -4.8630   -0.2612  -20.7086 C   0  0  0  0  0  0  0  0  0  0  0  0
   -8.3877   -6.0422  -24.8105 C   0  0  0  0  0  0  0  0  0  0  0  0
   -8.6375   -4.5640  -24.7611 C   0  0  0  0  0  0  0  0  0  0  0  0
   -7.9155   -3.7144  -23.7576 C   0  0  0  0  0  0  0  0  0  0  0  0
   -6.9437   -4.3431  -22.8035 N   0  0  0  0  0  0  0  0  0  0  0  0
   -6.2217   -3.4936  -21.8000 C   0  0  0  0  0  0  0  0  0  0  0  0
   -5.2498   -4.1224  -20.8459 O   0  0  0  0  0  0  0  0  0  0  0  0
   -6.6939   -5.8214  -22.8529 C   0  0  0  0  0  0  0  0  0  0  0  0
   -7.4159   -6.6709  -23.8564 C   0  0  0  0  0  0  0  0  0  0  0  0
  -10.2989   -6.3422  -26.5446 C   0  0  0  0  0  0  0  0  0  0  0  0
   -9.1097   -6.8917  -25.8140 C   0  0  0  0  0  0  0  0  0  0  0  0
 20 21  1  0  0  0
 21 12  1  0  0  0
 12 13  1  0  0  0
 13 14  1  0  0  0
 14 15  1  0  0  0
 15 16  1  0  0  0
 16 17  2  0  0  0
 16  1  1  0  0  0
  1  2  1  0  0  0
  2  3  2  0  0  0
  3  4  1  0  0  0
  4  5  2  0  0  0
  5  6  1  0  0  0
  6  7  2  0  0  0
  7  8  1  0  0  0
  8  9  2  0  0  0
  9 10  1  0  0  0
 10 11  2  0  0  0
 15 18  1  0  0  0
 18 19  1  0  0  0
 19 12  1  0  0  0
 11  2  1  0  0  0
 11  6  1  0  0  0
M  END
> <minimizedAffinity>
-7.19180

> <CNNscore>
0.8226917386

> <CNNaffinity>
5.2982969284

> <CNN_VS>
4.3588652611

> <CNNaffinity_variance>
0.4019849300

$$$$



 21 23  0  0  0  0  0  0  0  0999 V2000
   -6.4941   -2.0988  -21.6871 C   0  0  0  0  0  0  0  0  0  0  0  0
   -5.9910   -1.2944  -20.5252 C   0  0  0  0  0  0  0  0  0  0  0  0
   -6.6038   -1.4731  -19.1679 C   0  0  0  0  0  0  0  0  0  0  0  0
   -6.1007   -0.6688  -18.0060 N   0  0  0  0  0  0  0  0  0  0  0  0
   -4.9849    0.3144  -18.2015 C   0  0  0  0  0  0  0  0  0  0  0  0
   -4.3720    0.4931  -19.5590 C   0  0  0  0  0  0  0  0  0  0  0  0
   -3.2562    1.4763  -19.7545 C   0  0  0  0  0  0  0  0  0  0  0  0
   -2.6434    1.6550  -21.1119 C   0  0  0  0  0  0  0  0  0  0  0  0
   -3.1464    0.8506  -22.2737 C   0  0  0  0  0  0  0  0  0  0  0  0
   -4.2623   -0.1325  -22.0782 C   0  0  0  0  0  0  0  0  0  0  0  0
   -4.8751   -0.3113  -20.7208 C   0  0  0  0  0  0  0  0  0  0  0  0
   -9.6635   -4.7230  -25.1968 C   0  0  0  0  0  0  0  0  0  0  0  0
   -8.2853   -4.9660  -24.6570 C   0  0  0  0  0  0  0  0  0  0  0  0
   -7.6882   -4.0103  -23.6670 C   0  0  0  0  0  0  0  0  0  0  0  0
   -8.4693   -2.8115  -23.2169 N   0  0  0  0  0  0  0  0  0  0  0  0
   -7.8723   -1.8557  -22.2269 C   0  0  0  0  0  0  0  0  0  0  0  0
   -8.6535   -0.6569  -21.7768 O   0  0  0  0  0  0  0  0  0  0  0  0
   -9.8476   -2.5684  -23.7567 C   0  0  0  0  0  0  0  0  0  0  0  0
  -10.4447   -3.5241  -24.7467 C   0  0  0  0  0  0  0  0  0  0  0  0
   -9.8329   -5.6345  -27.6238 C   0  0  0  0  0  0  0  0  0  0  0  0
  -10.2606   -5.6787  -26.1868 C   0  0  0  0  0  0  0  0  0  0  0  0
 20 21  1  0  0  0
 21 12  1  0  0  0
 12 13  1  0  0  0
 13 14  1  0  0  0
 14 15  1  0  0  0
 15 16  1  0  0  0
 16 17  2  0  0  0
 16  1  1  0  0  0
  1  2  1  0  0  0
  2  3  2  0  0  0
  3  4  1  0  0  0
  4  5  2  0  0  0
  5  6  1  0  0  0
  6  7  2  0  0  0
  7  8  1  0  0  0
  8  9  2  0  0  0
  9 10  1  0  0  0
 10 11  2  0  0  0
 15 18  1  0  0  0
 18 19  1  0  0  0
 19 12  1  0  0  0
 11  2  1  0  0  0
 11  6  1  0  0  0
M  END
> <minimizedAffinity>
-6.79671

> <CNNscore>
0.7289863825

> <CNNaffinity>
5.1589407921

> <CNN_VS>
3.7607975006

> <CNNaffinity_variance>
0.1644136757

$$$$



 21 23  0  0  0  0  0  0  0  0999 V2000
   -6.1966   -1.6961  -20.8710 C   0  0  0  0  0  0  0  0  0  0  0  0
   -5.2322   -0.6107  -20.4940 C   0  0  0  0  0  0  0  0  0  0  0  0
   -5.1623   -0.1292  -19.0752 C   0  0  0  0  0  0  0  0  0  0  0  0
   -4.1980    0.9562  -18.6981 N   0  0  0  0  0  0  0  0  0  0  0  0
   -3.3036    1.5599  -19.7400 C   0  0  0  0  0  0  0  0  0  0  0  0
   -3.3735    1.0784  -21.1589 C   0  0  0  0  0  0  0  0  0  0  0  0
   -2.4790    1.6821  -22.2007 C   0  0  0  0  0  0  0  0  0  0  0  0
   -2.5489    1.2006  -23.6195 C   0  0  0  0  0  0  0  0  0  0  0  0
   -3.5133    0.1153  -23.9966 C   0  0  0  0  0  0  0  0  0  0  0  0
   -4.4077   -0.4885  -22.9548 C   0  0  0  0  0  0  0  0  0  0  0  0
   -4.3378   -0.0070  -21.5359 C   0  0  0  0  0  0  0  0  0  0  0  0
   -6.5689   -5.8761  -24.2826 C   0  0  0  0  0  0  0  0  0  0  0  0
   -6.9940   -4.4391  -24.3481 C   0  0  0  0  0  0  0  0  0  0  0  0
   -6.7282   -3.5248  -23.1891 C   0  0  0  0  0  0  0  0  0  0  0  0
   -6.0373   -4.0474  -21.9645 N   0  0  0  0  0  0  0  0  0  0  0  0
   -5.7715   -3.1330  -20.8055 C   0  0  0  0  0  0  0  0  0  0  0  0
   -5.0806   -3.6558  -19.5810 O   0  0  0  0  0  0  0  0  0  0  0  0
   -5.6122   -5.4845  -21.8990 C   0  0  0  0  0  0  0  0  0  0  0  0
   -5.8780   -6.3988  -23.0580 C   0  0  0  0  0  0  0  0  0  0  0  0
   -7.8901   -6.4387  -26.4477 C   0  0  0  0  0  0  0  0  0  0  0  0
   -6.8347   -6.7904  -25.4416 C   0  0  0  0  0  0  0  0  0  0  0  0
 20 21  1  0  0  0
 21 12  1  0  0  0
 12 13  1  0  0  0
 13 14  1  0  0  0
 14 15  1  0  0  0
 15 16  1  0  0  0
 16 17  2  0  0  0
 16  1  1  0  0  0
  1  2  1  0  0  0
  2  3  2  0  0  0
  3  4  1  0  0  0
  4  5  2  0  0  0
  5  6  1  0  0  0
  6  7  2  0  0  0
  7  8  1  0  0  0
  8  9  2  0  0  0
  9 10  1  0  0  0
 10 11  2  0  0  0
 15 18  1  0  0  0
 18 19  1  0  0  0
 19 12  1  0  0  0
 11  2  1  0  0  0
 11  6  1  0  0  0
M  END
> <minimizedAffinity>
-6.17652

> <CNNscore>
0.6070083976

> <CNNaffinity>
4.7573065758

> <CNN_VS>
2.8877251148

> <CNNaffinity_variance>
0.2111646384

$$$$



 21 23  0  0  0  0  0  0  0  0999 V2000
   -6.6574   -0.8839  -22.3558 C   0  0  0  0  0  0  0  0  0  0  0  0
   -6.1177   -0.4831  -21.0148 C   0  0  0  0  0  0  0  0  0  0  0  0
   -6.8393   -0.8891  -19.7641 C   0  0  0  0  0  0  0  0  0  0  0  0
   -6.2996   -0.4884  -18.4232 N   0  0  0  0  0  0  0  0  0  0  0  0
   -5.0383    0.3184  -18.3330 C   0  0  0  0  0  0  0  0  0  0  0  0
   -4.3166    0.7244  -19.5838 C   0  0  0  0  0  0  0  0  0  0  0  0
   -3.0553    1.5312  -19.4936 C   0  0  0  0  0  0  0  0  0  0  0  0
   -2.3337    1.9372  -20.7443 C   0  0  0  0  0  0  0  0  0  0  0  0
   -2.8734    1.5364  -22.0852 C   0  0  0  0  0  0  0  0  0  0  0  0
   -4.1347    0.7297  -22.1754 C   0  0  0  0  0  0  0  0  0  0  0  0
   -4.8563    0.3237  -20.9247 C   0  0  0  0  0  0  0  0  0  0  0  0
  -12.0178   -1.2148  -22.9938 C   0  0  0  0  0  0  0  0  0  0  0  0
  -10.9969   -2.0742  -22.3089 C   0  0  0  0  0  0  0  0  0  0  0  0
   -9.5504   -1.6775  -22.3245 C   0  0  0  0  0  0  0  0  0  0  0  0
   -9.1248   -0.4213  -23.0251 N   0  0  0  0  0  0  0  0  0  0  0  0
   -7.6783   -0.0245  -23.0407 C   0  0  0  0  0  0  0  0  0  0  0  0
   -7.2527    1.2318  -23.7413 O   0  0  0  0  0  0  0  0  0  0  0  0
  -10.1457    0.4382  -23.7100 C   0  0  0  0  0  0  0  0  0  0  0  0
  -11.5922    0.0414  -23.6944 C   0  0  0  0  0  0  0  0  0  0  0  0
  -13.9361   -2.6901  -22.0486 C   0  0  0  0  0  0  0  0  0  0  0  0
  -13.4643   -1.6116  -22.9782 C   0  0  0  0  0  0  0  0  0  0  0  0
 20 21  1  0  0  0
 21 12  1  0  0  0
 12 13  1  0  0  0
 13 14  1  0  0  0
 14 15  1  0  0  0
 15 16  1  0  0  0
 16 17  2  0  0  0
 16  1  1  0  0  0
  1  2  1  0  0  0
  2  3  2  0  0  0
  3  4  1  0  0  0
  4  5  2  0  0  0
  5  6  1  0  0  0
  6  7  2  0  0  0
  7  8  1  0  0  0
  8  9  2  0  0  0
  9 10  1  0  0  0
 10 11  2  0  0  0
 15 18  1  0  0  0
 18 19  1  0  0  0
 19 12  1  0  0  0
 11  2  1  0  0  0
 11  6  1  0  0  0
M  END
> <minimizedAffinity>
-6.08725

> <CNNscore>
0.5402680039

> <CNNaffinity>
5.0919642448

> <CNN_VS>
2.7510254383

> <CNNaffinity_variance>
0.0513576679

$$$$



 21 23  0  0  0  0  0  0  0  0999 V2000
   -7.0174   -0.8360  -22.6873 C   0  0  0  0  0  0  0  0  0  0  0  0
   -6.5595   -0.6351  -21.2731 C   0  0  0  0  0  0  0  0  0  0  0  0
   -7.3358   -1.2387  -20.1405 C   0  0  0  0  0  0  0  0  0  0  0  0
   -6.8780   -1.0378  -18.7263 N   0  0  0  0  0  0  0  0  0  0  0  0
   -5.6438   -0.2332  -18.4447 C   0  0  0  0  0  0  0  0  0  0  0  0
   -4.8674    0.3705  -19.5774 C   0  0  0  0  0  0  0  0  0  0  0  0
   -3.6332    1.1752  -19.2958 C   0  0  0  0  0  0  0  0  0  0  0  0
   -2.8569    1.7788  -20.4284 C   0  0  0  0  0  0  0  0  0  0  0  0
   -3.3148    1.5778  -21.8426 C   0  0  0  0  0  0  0  0  0  0  0  0
   -4.5489    0.7732  -22.1242 C   0  0  0  0  0  0  0  0  0  0  0  0
   -5.3253    0.1696  -20.9916 C   0  0  0  0  0  0  0  0  0  0  0  0
   -9.7202   -4.6860  -25.3561 C   0  0  0  0  0  0  0  0  0  0  0  0
   -8.2685   -4.4461  -25.0647 C   0  0  0  0  0  0  0  0  0  0  0  0
   -7.8514   -3.2428  -24.2723 C   0  0  0  0  0  0  0  0  0  0  0  0
   -8.8861   -2.2793  -23.7712 N   0  0  0  0  0  0  0  0  0  0  0  0
   -8.4691   -1.0759  -22.9787 C   0  0  0  0  0  0  0  0  0  0  0  0
   -9.5039   -0.1124  -22.4776 O   0  0  0  0  0  0  0  0  0  0  0  0
  -10.3379   -2.5192  -24.0626 C   0  0  0  0  0  0  0  0  0  0  0  0
  -10.7549   -3.7225  -24.8551 C   0  0  0  0  0  0  0  0  0  0  0  0
   -9.3217   -7.1469  -26.0879 C   0  0  0  0  0  0  0  0  0  0  0  0
  -10.1372   -5.8894  -26.1486 C   0  0  0  0  0  0  0  0  0  0  0  0
 20 21  1  0  0  0
 21 12  1  0  0  0
 12 13  1  0  0  0
 13 14  1  0  0  0
 14 15  1  0  0  0
 15 16  1  0  0  0
 16 17  2  0  0  0
 16  1  1  0  0  0
  1  2  1  0  0  0
  2  3  2  0  0  0
  3  4  1  0  0  0
  4  5  2  0  0  0
  5  6  1  0  0  0
  6  7  2  0  0  0
  7  8  1  0  0  0
  8  9  2  0  0  0
  9 10  1  0  0  0
 10 11  2  0  0  0
 15 18  1  0  0  0
 18 19  1  0  0  0
 19 12  1  0  0  0
 11  2  1  0  0  0
 11  6  1  0  0  0
M  END
> <minimizedAffinity>
-6.22631

> <CNNscore>
0.4541524649

> <CNNaffinity>
4.8950176239

> <CNN_VS>
2.2230842113

> <CNNaffinity_variance>
0.1147453412

$$$$



 21 23  0  0  0  0  0  0  0  0999 V2000
   -6.8872   -1.3892  -22.4575 C   0  0  0  0  0  0  0  0  0  0  0  0
   -6.4834   -0.8931  -21.1007 C   0  0  0  0  0  0  0  0  0  0  0  0
   -7.3399   -1.1939  -19.9067 C   0  0  0  0  0  0  0  0  0  0  0  0
   -6.9362   -0.6977  -18.5499 N   0  0  0  0  0  0  0  0  0  0  0  0
   -5.6759    0.0992  -18.3872 C   0  0  0  0  0  0  0  0  0  0  0  0
   -4.8193    0.4000  -19.5813 C   0  0  0  0  0  0  0  0  0  0  0  0
   -3.5590    1.1970  -19.4186 C   0  0  0  0  0  0  0  0  0  0  0  0
   -2.7025    1.4977  -20.6127 C   0  0  0  0  0  0  0  0  0  0  0  0
   -3.1062    1.0016  -21.9695 C   0  0  0  0  0  0  0  0  0  0  0  0
   -4.3665    0.2047  -22.1322 C   0  0  0  0  0  0  0  0  0  0  0  0
   -5.2230   -0.0961  -20.9381 C   0  0  0  0  0  0  0  0  0  0  0  0
  -12.0038    0.1237  -23.3413 C   0  0  0  0  0  0  0  0  0  0  0  0
  -10.7138    0.8693  -23.1687 C   0  0  0  0  0  0  0  0  0  0  0  0
   -9.4383    0.1165  -22.9317 C   0  0  0  0  0  0  0  0  0  0  0  0
   -9.4527   -1.3820  -22.8672 N   0  0  0  0  0  0  0  0  0  0  0  0
   -8.1772   -2.1349  -22.6301 C   0  0  0  0  0  0  0  0  0  0  0  0
   -8.1917   -3.6335  -22.5656 O   0  0  0  0  0  0  0  0  0  0  0  0
  -10.7428   -2.1278  -23.0398 C   0  0  0  0  0  0  0  0  0  0  0  0
  -12.0183   -1.3749  -23.2768 C   0  0  0  0  0  0  0  0  0  0  0  0
  -13.2981    2.3726  -23.4720 C   0  0  0  0  0  0  0  0  0  0  0  0
  -13.2793    0.8765  -23.5784 C   0  0  0  0  0  0  0  0  0  0  0  0
 20 21  1  0  0  0
 21 12  1  0  0  0
 12 13  1  0  0  0
 13 14  1  0  0  0
 14 15  1  0  0  0
 15 16  1  0  0  0
 16 17  2  0  0  0
 16  1  1  0  0  0
  1  2  1  0  0  0
  2  3  2  0  0  0
  3  4  1  0  0  0
  4  5  2  0  0  0
  5  6  1  0  0  0
  6  7  2  0  0  0
  7  8  1  0  0  0
  8  9  2  0  0  0
  9 10  1  0  0  0
 10 11  2  0  0  0
 15 18  1  0  0  0
 18 19  1  0  0  0
 19 12  1  0  0  0
 11  2  1  0  0  0
 11  6  1  0  0  0
M  END
> <minimizedAffinity>
-6.95691

> <CNNscore>
0.4313264489

> <CNNaffinity>
4.9150280952

> <CNN_VS>
2.1199815273

> <CNNaffinity_variance>
0.4680576324

$$$$



 21 23  0  0  0  0  0  0  0  0999 V2000
   -5.4157   -1.4309  -20.3806 C   0  0  0  0  0  0  0  0  0  0  0  0
   -6.5499   -0.6406  -20.9629 C   0  0  0  0  0  0  0  0  0  0  0  0
   -7.9284   -1.2299  -21.0099 C   0  0  0  0  0  0  0  0  0  0  0  0
   -9.0625   -0.4396  -21.5922 N   0  0  0  0  0  0  0  0  0  0  0  0
   -8.8181    0.9400  -22.1277 C   0  0  0  0  0  0  0  0  0  0  0  0
   -7.4395    1.5295  -22.0808 C   0  0  0  0  0  0  0  0  0  0  0  0
   -7.1951    2.9091  -22.6162 C   0  0  0  0  0  0  0  0  0  0  0  0
   -5.8166    3.4985  -22.5693 C   0  0  0  0  0  0  0  0  0  0  0  0
   -4.6825    2.7082  -21.9869 C   0  0  0  0  0  0  0  0  0  0  0  0
   -4.9269    1.3285  -21.4515 C   0  0  0  0  0  0  0  0  0  0  0  0
   -6.3054    0.7392  -21.4984 C   0  0  0  0  0  0  0  0  0  0  0  0
   -6.3777   -5.1565  -24.1812 C   0  0  0  0  0  0  0  0  0  0  0  0
   -6.3235   -3.6575  -24.1843 C   0  0  0  0  0  0  0  0  0  0  0  0
   -6.0209   -2.9153  -22.9164 C   0  0  0  0  0  0  0  0  0  0  0  0
   -5.7725   -3.6721  -21.6454 N   0  0  0  0  0  0  0  0  0  0  0  0
   -5.4699   -2.9299  -20.3775 C   0  0  0  0  0  0  0  0  0  0  0  0
   -5.2215   -3.6867  -19.1064 O   0  0  0  0  0  0  0  0  0  0  0  0
   -5.8267   -5.1711  -21.6422 C   0  0  0  0  0  0  0  0  0  0  0  0
   -6.1293   -5.9133  -22.9101 C   0  0  0  0  0  0  0  0  0  0  0  0
   -8.0933   -6.2827  -25.7743 C   0  0  0  0  0  0  0  0  0  0  0  0
   -6.6803   -5.8986  -25.4491 C   0  0  0  0  0  0  0  0  0  0  0  0
 20 21  1  0  0  0
 21 12  1  0  0  0
 12 13  1  0  0  0
 13 14  1  0  0  0
 14 15  1  0  0  0
 15 16  1  0  0  0
 16 17  2  0  0  0
 16  1  1  0  0  0
  1  2  1  0  0  0
  2  3  2  0  0  0
  3  4  1  0  0  0
  4  5  2  0  0  0
  5  6  1  0  0  0
  6  7  2  0  0  0
  7  8  1  0  0  0
  8  9  2  0  0  0
  9 10  1  0  0  0
 10 11  2  0  0  0
 15 18  1  0  0  0
 18 19  1  0  0  0
 19 12  1  0  0  0
 11  2  1  0  0  0
 11  6  1  0  0  0
M  END
> <minimizedAffinity>
-5.90032

> <CNNscore>
0.3856897056

> <CNNaffinity>
4.9848151207

> <CNN_VS>
1.9225919247

> <CNNaffinity_variance>
0.0612151623

$$$$



 21 23  0  0  0  0  0  0  0  0999 V2000
   -8.0610    0.2751  -22.1829 C   0  0  0  0  0  0  0  0  0  0  0  0
   -9.1696   -0.6688  -22.5437 C   0  0  0  0  0  0  0  0  0  0  0  0
   -8.9238   -2.1484  -22.5462 C   0  0  0  0  0  0  0  0  0  0  0  0
  -10.0323   -3.0923  -22.9070 N   0  0  0  0  0  0  0  0  0  0  0  0
  -11.3867   -2.5565  -23.2654 C   0  0  0  0  0  0  0  0  0  0  0  0
  -11.6326   -1.0767  -23.2629 C   0  0  0  0  0  0  0  0  0  0  0  0
  -12.9870   -0.5409  -23.6213 C   0  0  0  0  0  0  0  0  0  0  0  0
  -13.2329    0.9387  -23.6188 C   0  0  0  0  0  0  0  0  0  0  0  0
  -12.1243    1.8826  -23.2580 C   0  0  0  0  0  0  0  0  0  0  0  0
  -10.7699    1.3468  -22.8996 C   0  0  0  0  0  0  0  0  0  0  0  0
  -10.5241   -0.1329  -22.9021 C   0  0  0  0  0  0  0  0  0  0  0  0
   -3.2436    2.0895  -20.5247 C   0  0  0  0  0  0  0  0  0  0  0  0
   -4.1018    2.3641  -21.7239 C   0  0  0  0  0  0  0  0  0  0  0  0
   -5.4215    1.6677  -21.8769 C   0  0  0  0  0  0  0  0  0  0  0  0
   -5.8830    0.6969  -20.8307 N   0  0  0  0  0  0  0  0  0  0  0  0
   -7.2028    0.0006  -20.9837 C   0  0  0  0  0  0  0  0  0  0  0  0
   -7.6643   -0.9703  -19.9375 O   0  0  0  0  0  0  0  0  0  0  0  0
   -5.0248    0.4224  -19.6315 C   0  0  0  0  0  0  0  0  0  0  0  0
   -3.7050    1.1187  -19.4785 C   0  0  0  0  0  0  0  0  0  0  0  0
   -0.6768    1.9863  -20.1359 C   0  0  0  0  0  0  0  0  0  0  0  0
   -1.9238    2.7859  -20.3717 C   0  0  0  0  0  0  0  0  0  0  0  0
 20 21  1  0  0  0
 21 12  1  0  0  0
 12 13  1  0  0  0
 13 14  1  0  0  0
 14 15  1  0  0  0
 15 16  1  0  0  0
 16 17  2  0  0  0
 16  1  1  0  0  0
  1  2  1  0  0  0
  2  3  2  0  0  0
  3  4  1  0  0  0
  4  5  2  0  0  0
  5  6  1  0  0  0
  6  7  2  0  0  0
  7  8  1  0  0  0
  8  9  2  0  0  0
  9 10  1  0  0  0
 10 11  2  0  0  0
 15 18  1  0  0  0
 18 19  1  0  0  0
 19 12  1  0  0  0
 11  2  1  0  0  0
 11  6  1  0  0  0
M  END
> <minimizedAffinity>
-6.56323

> <CNNscore>
0.3698742092

> <CNNaffinity>
4.5166792870

> <CNN_VS>
1.6706031561

> <CNNaffinity_variance>
0.3400846422

$$$$



 21 23  0  0  0  0  0  0  0  0999 V2000
   -8.7628   -1.9955  -23.9970 C   0  0  0  0  0  0  0  0  0  0  0  0
  -10.1992   -1.8305  -23.5974 C   0  0  0  0  0  0  0  0  0  0  0  0
  -10.9995   -3.0236  -23.1662 C   0  0  0  0  0  0  0  0  0  0  0  0
  -12.4359   -2.8586  -22.7666 N   0  0  0  0  0  0  0  0  0  0  0  0
  -13.0719   -1.5005  -22.7982 C   0  0  0  0  0  0  0  0  0  0  0  0
  -12.2716   -0.3074  -23.2294 C   0  0  0  0  0  0  0  0  0  0  0  0
  -12.9076    1.0507  -23.2611 C   0  0  0  0  0  0  0  0  0  0  0  0
  -12.1072    2.2438  -23.6923 C   0  0  0  0  0  0  0  0  0  0  0  0
  -10.6709    2.0788  -24.0918 C   0  0  0  0  0  0  0  0  0  0  0  0
  -10.0349    0.7207  -24.0602 C   0  0  0  0  0  0  0  0  0  0  0  0
  -10.8352   -0.4724  -23.6290 C   0  0  0  0  0  0  0  0  0  0  0  0
   -5.3900   -0.2555  -20.1439 C   0  0  0  0  0  0  0  0  0  0  0  0
   -6.3523    0.4275  -21.0698 C   0  0  0  0  0  0  0  0  0  0  0  0
   -7.1558   -0.3802  -22.0455 C   0  0  0  0  0  0  0  0  0  0  0  0
   -6.9970   -1.8709  -22.0954 N   0  0  0  0  0  0  0  0  0  0  0  0
   -7.8005   -2.6786  -23.0711 C   0  0  0  0  0  0  0  0  0  0  0  0
   -7.6416   -4.1693  -23.1209 O   0  0  0  0  0  0  0  0  0  0  0  0
   -6.0346   -2.5540  -21.1694 C   0  0  0  0  0  0  0  0  0  0  0  0
   -5.2311   -1.7463  -20.1937 C   0  0  0  0  0  0  0  0  0  0  0  0
   -3.4644    1.4193  -19.6571 C   0  0  0  0  0  0  0  0  0  0  0  0
   -4.5864    0.5522  -19.1682 C   0  0  0  0  0  0  0  0  0  0  0  0
 20 21  1  0  0  0
 21 12  1  0  0  0
 12 13  1  0  0  0
 13 14  1  0  0  0
 14 15  1  0  0  0
 15 16  1  0  0  0
 16 17  2  0  0  0
 16  1  1  0  0  0
  1  2  1  0  0  0
  2  3  2  0  0  0
  3  4  1  0  0  0
  4  5  2  0  0  0
  5  6  1  0  0  0
  6  7  2  0  0  0
  7  8  1  0  0  0
  8  9  2  0  0  0
  9 10  1  0  0  0
 10 11  2  0  0  0
 15 18  1  0  0  0
 18 19  1  0  0  0
 19 12  1  0  0  0
 11  2  1  0  0  0
 11  6  1  0  0  0
M  END
> <minimizedAffinity>
-6.52572

> <CNNscore>
0.3673399091

> <CNNaffinity>
4.7746224403

> <CNN_VS>
1.7539093494

> <CNNaffinity_variance>
0.3500869572

$$$$
