


 35 40  0  0  0  0  0  0  0  0999 V2000
   -5.8760   -5.5211  -22.8974 C   0  0  0  0  0  0  0  0  0  0  0  0
   -6.4142   -4.1910  -22.4601 C   0  0  0  0  0  0  0  0  0  0  0  0
   -5.5584   -3.5587  -21.4028 C   0  0  0  0  0  0  0  0  0  0  0  0
   -6.1748   -2.2419  -21.0337 N   0  0  0  0  0  0  0  0  0  0  0  0
   -7.4116   -2.0605  -21.8629 C   0  0  0  0  0  0  0  0  0  0  0  0
   -8.3377   -0.8814  -21.8183 O   0  0  0  0  0  0  0  0  0  0  0  0
   -7.5595   -3.2650  -22.7445 C   0  0  0  0  0  0  0  0  0  0  0  0
   -8.6434   -2.2432  -22.9207 C   0  0  0  0  0  0  0  0  0  0  0  0
   -9.7435   -2.4802  -23.9125 N   0  0  0  0  0  0  0  0  0  0  0  0
   -9.7597   -3.7390  -24.7280 C   0  0  0  0  0  0  0  0  0  0  0  0
  -10.8598   -3.9760  -25.7198 O   0  0  0  0  0  0  0  0  0  0  0  0
   -8.6758   -4.7609  -24.5518 C   0  0  0  0  0  0  0  0  0  0  0  0
   -8.6920   -6.0197  -25.3673 C   0  0  0  0  0  0  0  0  0  0  0  0
   -7.6082   -7.0415  -25.1910 C   0  0  0  0  0  0  0  0  0  0  0  0
   -6.5081   -6.8045  -24.1992 C   0  0  0  0  0  0  0  0  0  0  0  0
   -5.4242   -7.8264  -24.0230 F   0  0  0  0  0  0  0  0  0  0  0  0
   -6.4918   -5.5457  -23.3837 C   0  0  0  0  0  0  0  0  0  0  0  0
   -7.5757   -4.5239  -23.5600 C   0  0  0  0  0  0  0  0  0  0  0  0
   -5.6472   -1.2762  -20.0144 C   0  0  0  0  0  0  0  0  0  0  0  0
   -6.1012   -1.3689  -18.5879 C   0  0  0  0  0  0  0  0  0  0  0  0
   -5.5736   -0.4032  -17.5686 N   0  0  0  0  0  0  0  0  0  0  0  0
   -4.5919    0.6552  -17.9759 C   0  0  0  0  0  0  0  0  0  0  0  0
   -4.1378    0.7479  -19.4025 C   0  0  0  0  0  0  0  0  0  0  0  0
   -3.1560    1.8064  -19.8098 C   0  0  0  0  0  0  0  0  0  0  0  0
   -2.7020    1.8990  -21.2365 C   0  0  0  0  0  0  0  0  0  0  0  0
   -3.2297    0.9333  -22.2557 C   0  0  0  0  0  0  0  0  0  0  0  0
   -4.2114   -0.1251  -21.8484 C   0  0  0  0  0  0  0  0  0  0  0  0
   -4.6654   -0.2178  -20.4218 C   0  0  0  0  0  0  0  0  0  0  0  0
  -10.8274   -1.4583  -24.0888 C   0  0  0  0  0  0  0  0  0  0  0  0
  -12.1439   -1.6336  -23.3917 C   0  0  0  0  0  0  0  0  0  0  0  0
  -13.3150   -0.6998  -23.4716 C   0  0  0  0  0  0  0  0  0  0  0  0
  -14.4155   -1.2626  -22.6217 N   0  0  0  0  0  0  0  0  0  0  0  0
  -13.9244   -2.5443  -22.0165 N   0  0  0  0  0  0  0  0  0  0  0  0
  -12.5205   -2.7736  -22.4924 N   0  0  0  0  0  0  0  0  0  0  0  0
  -14.4341   -3.1318  -21.4129 H   0  0  0  0  0  0  0  0  0  0  0  0
  2  1  1  0  0  0
  2  3  1  0  0  0
  3  4  1  0  0  0
  4 19  1  0  0  0
 19 20  2  0  0  0
 20 21  1  0  0  0
 21 22  2  0  0  0
 22 23  1  0  0  0
 23 24  2  0  0  0
 24 25  1  0  0  0
 25 26  2  0  0  0
 26 27  1  0  0  0
 27 28  2  0  0  0
  4  5  1  0  0  0
  5  6  2  0  0  0
  5  7  1  0  0  0
  7  8  1  0  0  0
  8  9  1  0  0  0
  9 29  1  0  0  0
 29 30  1  0  0  0
 30 31  1  0  0  0
 31 32  2  0  0  0
 32 33  1  0  0  0
 33 34  1  0  0  0
  9 10  1  0  0  0
 10 11  2  0  0  0
 10 12  1  0  0  0
 12 13  2  0  0  0
 13 14  1  0  0  0
 14 15  2  0  0  0
 15 16  1  0  0  0
 15 17  1  0  0  0
 17 18  2  0  0  0
  7  2  1  0  0  0
 34 30  2  0  0  0
 18 12  1  0  0  0
 28 19  1  0  0  0
 18  7  1  0  0  0
 28 23  1  0  0  0
 33 35  1  0  0  0
M  END
> <minimizedAffinity>
-8.99113

> <CNNscore>
0.6570704579

> <CNNaffinity>
6.7494688034

> <CNN_VS>
4.4348764420

> <CNNaffinity_variance>
0.2547420859

$$$$



 35 40  0  0  0  0  0  0  0  0999 V2000
   -7.2969   -0.3355  -21.3040 C   0  0  0  0  0  0  0  0  0  0  0  0
   -8.5286   -0.3783  -22.1592 C   0  0  0  0  0  0  0  0  0  0  0  0
   -9.2600    0.9314  -22.1568 C   0  0  0  0  0  0  0  0  0  0  0  0
  -10.4683    0.7890  -23.0341 N   0  0  0  0  0  0  0  0  0  0  0  0
  -10.4837   -0.6086  -23.5787 C   0  0  0  0  0  0  0  0  0  0  0  0
  -11.5165   -1.1838  -24.5019 O   0  0  0  0  0  0  0  0  0  0  0  0
   -9.2849   -1.3300  -23.0379 C   0  0  0  0  0  0  0  0  0  0  0  0
  -10.1431   -2.1649  -23.9414 C   0  0  0  0  0  0  0  0  0  0  0  0
   -9.7666   -3.5882  -24.2290 N   0  0  0  0  0  0  0  0  0  0  0  0
   -8.5320   -4.1765  -23.6130 C   0  0  0  0  0  0  0  0  0  0  0  0
   -8.1556   -5.5997  -23.9005 O   0  0  0  0  0  0  0  0  0  0  0  0
   -7.6737   -3.3416  -22.7094 C   0  0  0  0  0  0  0  0  0  0  0  0
   -6.4391   -3.9299  -22.0934 C   0  0  0  0  0  0  0  0  0  0  0  0
   -5.5809   -3.0950  -21.1899 C   0  0  0  0  0  0  0  0  0  0  0  0
   -5.9574   -1.6718  -20.9023 C   0  0  0  0  0  0  0  0  0  0  0  0
   -5.0991   -0.8369  -19.9988 F   0  0  0  0  0  0  0  0  0  0  0  0
   -7.1920   -1.0834  -21.5183 C   0  0  0  0  0  0  0  0  0  0  0  0
   -8.0502   -1.9183  -22.4219 C   0  0  0  0  0  0  0  0  0  0  0  0
  -11.4831    1.8567  -23.3172 C   0  0  0  0  0  0  0  0  0  0  0  0
  -12.9160    1.6528  -22.9236 C   0  0  0  0  0  0  0  0  0  0  0  0
  -13.9308    2.7205  -23.2067 N   0  0  0  0  0  0  0  0  0  0  0  0
  -13.5126    3.9922  -23.8834 C   0  0  0  0  0  0  0  0  0  0  0  0
  -12.0795    4.1961  -24.2770 C   0  0  0  0  0  0  0  0  0  0  0  0
  -11.6613    5.4679  -24.9538 C   0  0  0  0  0  0  0  0  0  0  0  0
  -10.2283    5.6717  -25.3473 C   0  0  0  0  0  0  0  0  0  0  0  0
   -9.2136    4.6040  -25.0642 C   0  0  0  0  0  0  0  0  0  0  0  0
   -9.6318    3.3323  -24.3875 C   0  0  0  0  0  0  0  0  0  0  0  0
  -11.0648    3.1284  -23.9939 C   0  0  0  0  0  0  0  0  0  0  0  0
  -10.6249   -4.4231  -25.1325 C   0  0  0  0  0  0  0  0  0  0  0  0
  -10.0170   -5.1130  -26.3176 C   0  0  0  0  0  0  0  0  0  0  0  0
   -9.2797   -4.4485  -27.4422 C   0  0  0  0  0  0  0  0  0  0  0  0
   -8.8466   -5.5134  -28.4057 N   0  0  0  0  0  0  0  0  0  0  0  0
   -9.3162   -6.8361  -27.8766 N   0  0  0  0  0  0  0  0  0  0  0  0
  -10.0396   -6.5886  -26.5861 N   0  0  0  0  0  0  0  0  0  0  0  0
   -9.1746   -7.7127  -28.3017 H   0  0  0  0  0  0  0  0  0  0  0  0
  2  1  1  0  0  0
  2  3  1  0  0  0
  3  4  1  0  0  0
  4 19  1  0  0  0
 19 20  2  0  0  0
 20 21  1  0  0  0
 21 22  2  0  0  0
 22 23  1  0  0  0
 23 24  2  0  0  0
 24 25  1  0  0  0
 25 26  2  0  0  0
 26 27  1  0  0  0
 27 28  2  0  0  0
  4  5  1  0  0  0
  5  6  2  0  0  0
  5  7  1  0  0  0
  7  8  1  0  0  0
  8  9  1  0  0  0
  9 29  1  0  0  0
 29 30  1  0  0  0
 30 31  1  0  0  0
 31 32  2  0  0  0
 32 33  1  0  0  0
 33 34  1  0  0  0
  9 10  1  0  0  0
 10 11  2  0  0  0
 10 12  1  0  0  0
 12 13  2  0  0  0
 13 14  1  0  0  0
 14 15  2  0  0  0
 15 16  1  0  0  0
 15 17  1  0  0  0
 17 18  2  0  0  0
  7  2  1  0  0  0
 34 30  2  0  0  0
 18 12  1  0  0  0
 28 19  1  0  0  0
 18  7  1  0  0  0
 28 23  1  0  0  0
 33 35  1  0  0  0
M  END
> <minimizedAffinity>
-9.55166

> <CNNscore>
0.5784487724

> <CNNaffinity>
6.3517961502

> <CNN_VS>
3.6741886139

> <CNNaffinity_variance>
0.3412286341

$$$$



 35 40  0  0  0  0  0  0  0  0999 V2000
   -9.5213   -2.5042  -23.7218 C   0  0  0  0  0  0  0  0  0  0  0  0
   -8.2760   -2.7268  -22.9157 C   0  0  0  0  0  0  0  0  0  0  0  0
   -8.0120   -1.5963  -21.9658 C   0  0  0  0  0  0  0  0  0  0  0  0
   -6.7545   -1.9097  -21.2105 N   0  0  0  0  0  0  0  0  0  0  0  0
   -6.2414   -3.2338  -21.6936 C   0  0  0  0  0  0  0  0  0  0  0  0
   -5.0050   -3.9306  -21.2079 O   0  0  0  0  0  0  0  0  0  0  0  0
   -7.1817   -3.7388  -22.7475 C   0  0  0  0  0  0  0  0  0  0  0  0
   -6.0272   -4.6554  -22.4700 C   0  0  0  0  0  0  0  0  0  0  0  0
   -5.8963   -5.9459  -23.2234 N   0  0  0  0  0  0  0  0  0  0  0  0
   -6.9197   -6.3197  -24.2542 C   0  0  0  0  0  0  0  0  0  0  0  0
   -6.7887   -7.6102  -25.0076 O   0  0  0  0  0  0  0  0  0  0  0  0
   -8.0743   -5.4031  -24.5317 C   0  0  0  0  0  0  0  0  0  0  0  0
   -9.0977   -5.7770  -25.5626 C   0  0  0  0  0  0  0  0  0  0  0  0
  -10.2522   -4.8604  -25.8401 C   0  0  0  0  0  0  0  0  0  0  0  0
  -10.3832   -3.5700  -25.0867 C   0  0  0  0  0  0  0  0  0  0  0  0
  -11.5377   -2.6534  -25.3642 F   0  0  0  0  0  0  0  0  0  0  0  0
   -9.3597   -3.1961  -24.0558 C   0  0  0  0  0  0  0  0  0  0  0  0
   -8.2053   -4.1127  -23.7784 C   0  0  0  0  0  0  0  0  0  0  0  0
   -6.1214   -1.0499  -20.1570 C   0  0  0  0  0  0  0  0  0  0  0  0
   -6.6695   -1.0486  -18.7608 C   0  0  0  0  0  0  0  0  0  0  0  0
   -6.0363   -0.1888  -17.7073 N   0  0  0  0  0  0  0  0  0  0  0  0
   -4.8550    0.6697  -18.0501 C   0  0  0  0  0  0  0  0  0  0  0  0
   -4.3069    0.6684  -19.4464 C   0  0  0  0  0  0  0  0  0  0  0  0
   -3.1255    1.5269  -19.7892 C   0  0  0  0  0  0  0  0  0  0  0  0
   -2.5774    1.5255  -21.1854 C   0  0  0  0  0  0  0  0  0  0  0  0
   -3.2106    0.6657  -22.2388 C   0  0  0  0  0  0  0  0  0  0  0  0
   -4.3919   -0.1928  -21.8960 C   0  0  0  0  0  0  0  0  0  0  0  0
   -4.9400   -0.1914  -20.4999 C   0  0  0  0  0  0  0  0  0  0  0  0
   -4.7417   -6.8625  -22.9459 C   0  0  0  0  0  0  0  0  0  0  0  0
   -3.4775   -6.7391  -23.7437 C   0  0  0  0  0  0  0  0  0  0  0  0
   -3.3811   -6.3426  -25.1871 C   0  0  0  0  0  0  0  0  0  0  0  0
   -1.9318   -6.3490  -25.5737 N   0  0  0  0  0  0  0  0  0  0  0  0
   -1.1325   -6.7494  -24.3692 N   0  0  0  0  0  0  0  0  0  0  0  0
   -2.0878   -6.9904  -23.2382 N   0  0  0  0  0  0  0  0  0  0  0  0
   -0.1528   -6.8383  -24.3281 H   0  0  0  0  0  0  0  0  0  0  0  0
  2  1  1  0  0  0
  2  3  1  0  0  0
  3  4  1  0  0  0
  4 19  1  0  0  0
 19 20  2  0  0  0
 20 21  1  0  0  0
 21 22  2  0  0  0
 22 23  1  0  0  0
 23 24  2  0  0  0
 24 25  1  0  0  0
 25 26  2  0  0  0
 26 27  1  0  0  0
 27 28  2  0  0  0
  4  5  1  0  0  0
  5  6  2  0  0  0
  5  7  1  0  0  0
  7  8  1  0  0  0
  8  9  1  0  0  0
  9 29  1  0  0  0
 29 30  1  0  0  0
 30 31  1  0  0  0
 31 32  2  0  0  0
 32 33  1  0  0  0
 33 34  1  0  0  0
  9 10  1  0  0  0
 10 11  2  0  0  0
 10 12  1  0  0  0
 12 13  2  0  0  0
 13 14  1  0  0  0
 14 15  2  0  0  0
 15 16  1  0  0  0
 15 17  1  0  0  0
 17 18  2  0  0  0
  7  2  1  0  0  0
 34 30  2  0  0  0
 18 12  1  0  0  0
 28 19  1  0  0  0
 18  7  1  0  0  0
 28 23  1  0  0  0
 33 35  1  0  0  0
M  END
> <minimizedAffinity>
-8.39456

> <CNNscore>
0.4540766776

> <CNNaffinity>
6.4054899216

> <CNN_VS>
2.9085836411

> <CNNaffinity_variance>
0.0607420690

$$$$



 35 40  0  0  0  0  0  0  0  0999 V2000
   -6.3629    4.0715  -25.2255 C   0  0  0  0  0  0  0  0  0  0  0  0
   -7.0044    3.1570  -24.2244 C   0  0  0  0  0  0  0  0  0  0  0  0
   -8.4297    2.8497  -24.5767 C   0  0  0  0  0  0  0  0  0  0  0  0
   -8.9806    1.9348  -23.5234 N   0  0  0  0  0  0  0  0  0  0  0  0
   -7.8958    1.6766  -22.5202 C   0  0  0  0  0  0  0  0  0  0  0  0
   -8.0119    0.8145  -21.2982 O   0  0  0  0  0  0  0  0  0  0  0  0
   -6.6744    2.4320  -22.9534 C   0  0  0  0  0  0  0  0  0  0  0  0
   -6.4917    1.6526  -21.6849 C   0  0  0  0  0  0  0  0  0  0  0  0
   -5.1720    1.6784  -20.9723 N   0  0  0  0  0  0  0  0  0  0  0  0
   -4.0351    2.4837  -21.5281 C   0  0  0  0  0  0  0  0  0  0  0  0
   -2.7155    2.5095  -20.8155 O   0  0  0  0  0  0  0  0  0  0  0  0
   -4.2178    3.2632  -22.7967 C   0  0  0  0  0  0  0  0  0  0  0  0
   -3.0810    4.0684  -23.3525 C   0  0  0  0  0  0  0  0  0  0  0  0
   -3.2637    4.8478  -24.6210 C   0  0  0  0  0  0  0  0  0  0  0  0
   -4.5834    4.8220  -25.3336 C   0  0  0  0  0  0  0  0  0  0  0  0
   -4.7661    5.6014  -26.6022 F   0  0  0  0  0  0  0  0  0  0  0  0
   -5.7202    4.0167  -24.7778 C   0  0  0  0  0  0  0  0  0  0  0  0
   -5.5375    3.2373  -23.5093 C   0  0  0  0  0  0  0  0  0  0  0  0
  -10.3720    1.3761  -23.4808 C   0  0  0  0  0  0  0  0  0  0  0  0
  -11.5486    2.3005  -23.3763 C   0  0  0  0  0  0  0  0  0  0  0  0
  -12.9400    1.7418  -23.3337 N   0  0  0  0  0  0  0  0  0  0  0  0
  -13.1548    0.2586  -23.3956 C   0  0  0  0  0  0  0  0  0  0  0  0
  -11.9782   -0.6659  -23.5002 C   0  0  0  0  0  0  0  0  0  0  0  0
  -12.1930   -2.1492  -23.5621 C   0  0  0  0  0  0  0  0  0  0  0  0
  -11.0164   -3.0737  -23.6666 C   0  0  0  0  0  0  0  0  0  0  0  0
   -9.6251   -2.5149  -23.7092 C   0  0  0  0  0  0  0  0  0  0  0  0
   -9.4102   -1.0317  -23.6473 C   0  0  0  0  0  0  0  0  0  0  0  0
  -10.5868   -0.1072  -23.5428 C   0  0  0  0  0  0  0  0  0  0  0  0
   -4.9893    0.8990  -19.7037 C   0  0  0  0  0  0  0  0  0  0  0  0
   -5.0987   -0.5969  -19.7203 C   0  0  0  0  0  0  0  0  0  0  0  0
   -5.0490   -1.4711  -20.9381 C   0  0  0  0  0  0  0  0  0  0  0  0
   -5.1965   -2.8957  -20.4924 N   0  0  0  0  0  0  0  0  0  0  0  0
   -5.3374   -2.9020  -18.9990 N   0  0  0  0  0  0  0  0  0  0  0  0
   -5.2770   -1.4812  -18.5218 N   0  0  0  0  0  0  0  0  0  0  0  0
   -5.4499   -3.6987  -18.4317 H   0  0  0  0  0  0  0  0  0  0  0  0
  2  1  1  0  0  0
  2  3  1  0  0  0
  3  4  1  0  0  0
  4 19  1  0  0  0
 19 20  2  0  0  0
 20 21  1  0  0  0
 21 22  2  0  0  0
 22 23  1  0  0  0
 23 24  2  0  0  0
 24 25  1  0  0  0
 25 26  2  0  0  0
 26 27  1  0  0  0
 27 28  2  0  0  0
  4  5  1  0  0  0
  5  6  2  0  0  0
  5  7  1  0  0  0
  7  8  1  0  0  0
  8  9  1  0  0  0
  9 29  1  0  0  0
 29 30  1  0  0  0
 30 31  1  0  0  0
 31 32  2  0  0  0
 32 33  1  0  0  0
 33 34  1  0  0  0
  9 10  1  0  0  0
 10 11  2  0  0  0
 10 12  1  0  0  0
 12 13  2  0  0  0
 13 14  1  0  0  0
 14 15  2  0  0  0
 15 16  1  0  0  0
 15 17  1  0  0  0
 17 18  2  0  0  0
  7  2  1  0  0  0
 34 30  2  0  0  0
 18 12  1  0  0  0
 28 19  1  0  0  0
 18  7  1  0  0  0
 28 23  1  0  0  0
 33 35  1  0  0  0
M  END
> <minimizedAffinity>
-7.74258

> <CNNscore>
0.4321509004

> <CNNaffinity>
6.1968240738

> <CNN_VS>
2.6779630184

> <CNNaffinity_variance>
0.1151324138

$$$$



 35 40  0  0  0  0  0  0  0  0999 V2000
  -10.9003   -2.4379  -24.3800 C   0  0  0  0  0  0  0  0  0  0  0  0
  -10.4831   -1.1162  -23.8064 C   0  0  0  0  0  0  0  0  0  0  0  0
  -11.5762   -0.0932  -23.8993 C   0  0  0  0  0  0  0  0  0  0  0  0
  -11.0661    1.1856  -23.3040 N   0  0  0  0  0  0  0  0  0  0  0  0
   -9.6577    0.9529  -22.8431 C   0  0  0  0  0  0  0  0  0  0  0  0
   -8.7662    1.9652  -22.1870 O   0  0  0  0  0  0  0  0  0  0  0  0
   -9.2974   -0.4696  -23.1536 C   0  0  0  0  0  0  0  0  0  0  0  0
   -8.1981    0.3077  -22.4925 C   0  0  0  0  0  0  0  0  0  0  0  0
   -6.8830   -0.3524  -22.2014 N   0  0  0  0  0  0  0  0  0  0  0  0
   -6.6672   -1.7899  -22.5713 C   0  0  0  0  0  0  0  0  0  0  0  0
   -5.3522   -2.4501  -22.2802 O   0  0  0  0  0  0  0  0  0  0  0  0
   -7.7666   -2.5674  -23.2325 C   0  0  0  0  0  0  0  0  0  0  0  0
   -7.5508   -4.0049  -23.6025 C   0  0  0  0  0  0  0  0  0  0  0  0
   -8.6502   -4.7823  -24.2636 C   0  0  0  0  0  0  0  0  0  0  0  0
   -9.9652   -4.1221  -24.5547 C   0  0  0  0  0  0  0  0  0  0  0  0
  -11.0646   -4.8996  -25.2159 F   0  0  0  0  0  0  0  0  0  0  0  0
  -10.1810   -2.6846  -24.1848 C   0  0  0  0  0  0  0  0  0  0  0  0
   -9.0817   -1.9072  -23.5236 C   0  0  0  0  0  0  0  0  0  0  0  0
  -11.8301    2.4714  -23.1896 C   0  0  0  0  0  0  0  0  0  0  0  0
  -12.9164    2.6096  -22.1645 C   0  0  0  0  0  0  0  0  0  0  0  0
  -13.6804    3.8953  -22.0501 N   0  0  0  0  0  0  0  0  0  0  0  0
  -13.3582    5.0428  -22.9608 C   0  0  0  0  0  0  0  0  0  0  0  0
  -12.2718    4.9046  -23.9859 C   0  0  0  0  0  0  0  0  0  0  0  0
  -11.9496    6.0521  -24.8967 C   0  0  0  0  0  0  0  0  0  0  0  0
  -10.8632    5.9138  -25.9217 C   0  0  0  0  0  0  0  0  0  0  0  0
  -10.0993    4.6281  -26.0361 C   0  0  0  0  0  0  0  0  0  0  0  0
  -10.4215    3.4806  -25.1254 C   0  0  0  0  0  0  0  0  0  0  0  0
  -11.5078    3.6188  -24.1003 C   0  0  0  0  0  0  0  0  0  0  0  0
   -5.7837    0.4251  -21.5402 C   0  0  0  0  0  0  0  0  0  0  0  0
   -5.5971    0.3444  -20.0541 C   0  0  0  0  0  0  0  0  0  0  0  0
   -6.3875   -0.5139  -19.1115 C   0  0  0  0  0  0  0  0  0  0  0  0
   -5.8662   -0.2808  -17.7245 N   0  0  0  0  0  0  0  0  0  0  0  0
   -4.7536    0.7216  -17.8097 N   0  0  0  0  0  0  0  0  0  0  0  0
   -4.5872    1.1080  -19.2495 N   0  0  0  0  0  0  0  0  0  0  0  0
   -4.2252    1.0655  -17.0535 H   0  0  0  0  0  0  0  0  0  0  0  0
  2  1  1  0  0  0
  2  3  1  0  0  0
  3  4  1  0  0  0
  4 19  1  0  0  0
 19 20  2  0  0  0
 20 21  1  0  0  0
 21 22  2  0  0  0
 22 23  1  0  0  0
 23 24  2  0  0  0
 24 25  1  0  0  0
 25 26  2  0  0  0
 26 27  1  0  0  0
 27 28  2  0  0  0
  4  5  1  0  0  0
  5  6  2  0  0  0
  5  7  1  0  0  0
  7  8  1  0  0  0
  8  9  1  0  0  0
  9 29  1  0  0  0
 29 30  1  0  0  0
 30 31  1  0  0  0
 31 32  2  0  0  0
 32 33  1  0  0  0
 33 34  1  0  0  0
  9 10  1  0  0  0
 10 11  2  0  0  0
 10 12  1  0  0  0
 12 13  2  0  0  0
 13 14  1  0  0  0
 14 15  2  0  0  0
 15 16  1  0  0  0
 15 17  1  0  0  0
 17 18  2  0  0  0
  7  2  1  0  0  0
 34 30  2  0  0  0
 18 12  1  0  0  0
 28 19  1  0  0  0
 18  7  1  0  0  0
 28 23  1  0  0  0
 33 35  1  0  0  0
M  END
> <minimizedAffinity>
-8.86476

> <CNNscore>
0.3684655726

> <CNNaffinity>
6.3575234413

> <CNN_VS>
2.3425285816

> <CNNaffinity_variance>
0.1349627078

$$$$



 35 40  0  0  0  0  0  0  0  0999 V2000
   -8.8354   -3.9586  -24.4790 C   0  0  0  0  0  0  0  0  0  0  0  0
   -8.9555   -2.6843  -23.6969 C   0  0  0  0  0  0  0  0  0  0  0  0
  -10.0290   -1.7896  -24.2418 C   0  0  0  0  0  0  0  0  0  0  0  0
  -10.0715   -0.5498  -23.3986 N   0  0  0  0  0  0  0  0  0  0  0  0
   -9.0241   -0.6783  -22.3325 C   0  0  0  0  0  0  0  0  0  0  0  0
   -8.7200    0.3347  -21.2688 O   0  0  0  0  0  0  0  0  0  0  0  0
   -8.3344   -1.9975  -22.5168 C   0  0  0  0  0  0  0  0  0  0  0  0
   -7.8136   -1.1927  -21.3631 C   0  0  0  0  0  0  0  0  0  0  0  0
   -6.6986   -1.7307  -20.5161 N   0  0  0  0  0  0  0  0  0  0  0  0
   -6.1044   -3.0733  -20.8228 C   0  0  0  0  0  0  0  0  0  0  0  0
   -4.9893   -3.6112  -19.9758 O   0  0  0  0  0  0  0  0  0  0  0  0
   -6.6251   -3.8781  -21.9767 C   0  0  0  0  0  0  0  0  0  0  0  0
   -6.0308   -5.2207  -22.2834 C   0  0  0  0  0  0  0  0  0  0  0  0
   -6.5516   -6.0254  -23.4372 C   0  0  0  0  0  0  0  0  0  0  0  0
   -7.6666   -5.4875  -24.2842 C   0  0  0  0  0  0  0  0  0  0  0  0
   -8.1874   -6.2923  -25.4380 F   0  0  0  0  0  0  0  0  0  0  0  0
   -8.2609   -4.1449  -23.9774 C   0  0  0  0  0  0  0  0  0  0  0  0
   -7.7401   -3.3402  -22.8236 C   0  0  0  0  0  0  0  0  0  0  0  0
  -10.9985    0.6141  -23.5881 C   0  0  0  0  0  0  0  0  0  0  0  0
  -12.4518    0.4795  -23.2423 C   0  0  0  0  0  0  0  0  0  0  0  0
  -13.3788    1.6435  -23.4318 N   0  0  0  0  0  0  0  0  0  0  0  0
  -12.8524    2.9420  -23.9672 C   0  0  0  0  0  0  0  0  0  0  0  0
  -11.3990    3.0766  -24.3131 C   0  0  0  0  0  0  0  0  0  0  0  0
  -10.8726    4.3752  -24.8486 C   0  0  0  0  0  0  0  0  0  0  0  0
   -9.4192    4.5097  -25.1945 C   0  0  0  0  0  0  0  0  0  0  0  0
   -8.4923    3.3458  -25.0049 C   0  0  0  0  0  0  0  0  0  0  0  0
   -9.0187    2.0473  -24.4695 C   0  0  0  0  0  0  0  0  0  0  0  0
  -10.4720    1.9127  -24.1236 C   0  0  0  0  0  0  0  0  0  0  0  0
   -6.1779   -0.9259  -19.3623 C   0  0  0  0  0  0  0  0  0  0  0  0
   -4.9952   -0.0227  -19.5509 C   0  0  0  0  0  0  0  0  0  0  0  0
   -4.1395    0.0643  -20.7798 C   0  0  0  0  0  0  0  0  0  0  0  0
   -3.0761    1.0928  -20.5322 N   0  0  0  0  0  0  0  0  0  0  0  0
   -3.2746    1.6415  -19.1503 N   0  0  0  0  0  0  0  0  0  0  0  0
   -4.4607    0.9520  -18.5438 N   0  0  0  0  0  0  0  0  0  0  0  0
   -2.7232    2.3327  -18.7174 H   0  0  0  0  0  0  0  0  0  0  0  0
  2  1  1  0  0  0
  2  3  1  0  0  0
  3  4  1  0  0  0
  4 19  1  0  0  0
 19 20  2  0  0  0
 20 21  1  0  0  0
 21 22  2  0  0  0
 22 23  1  0  0  0
 23 24  2  0  0  0
 24 25  1  0  0  0
 25 26  2  0  0  0
 26 27  1  0  0  0
 27 28  2  0  0  0
  4  5  1  0  0  0
  5  6  2  0  0  0
  5  7  1  0  0  0
  7  8  1  0  0  0
  8  9  1  0  0  0
  9 29  1  0  0  0
 29 30  1  0  0  0
 30 31  1  0  0  0
 31 32  2  0  0  0
 32 33  1  0  0  0
 33 34  1  0  0  0
  9 10  1  0  0  0
 10 11  2  0  0  0
 10 12  1  0  0  0
 12 13  2  0  0  0
 13 14  1  0  0  0
 14 15  2  0  0  0
 15 16  1  0  0  0
 15 17  1  0  0  0
 17 18  2  0  0  0
  7  2  1  0  0  0
 34 30  2  0  0  0
 18 12  1  0  0  0
 28 19  1  0  0  0
 18  7  1  0  0  0
 28 23  1  0  0  0
 33 35  1  0  0  0
M  END
> <minimizedAffinity>
-9.48901

> <CNNscore>
0.3554121554

> <CNNaffinity>
6.1399931908

> <CNN_VS>
2.1822283268

> <CNNaffinity_variance>
0.3081968129

$$$$



 35 40  0  0  0  0  0  0  0  0999 V2000
   -7.9061   -3.8199  -24.9243 C   0  0  0  0  0  0  0  0  0  0  0  0
   -7.9239   -2.4822  -24.2459 C   0  0  0  0  0  0  0  0  0  0  0  0
   -8.6662   -1.4551  -25.0484 C   0  0  0  0  0  0  0  0  0  0  0  0
   -8.6286   -0.1602  -24.2922 N   0  0  0  0  0  0  0  0  0  0  0  0
   -7.8631   -0.3870  -23.0223 C   0  0  0  0  0  0  0  0  0  0  0  0
   -7.5823    0.6408  -21.9665 O   0  0  0  0  0  0  0  0  0  0  0  0
   -7.4275   -1.8221  -22.9937 C   0  0  0  0  0  0  0  0  0  0  0  0
   -6.9986   -1.0304  -21.7941 C   0  0  0  0  0  0  0  0  0  0  0  0
   -6.2059   -1.6897  -20.7046 N   0  0  0  0  0  0  0  0  0  0  0  0
   -5.8421   -3.1407  -20.8147 C   0  0  0  0  0  0  0  0  0  0  0  0
   -5.0494   -3.7999  -19.7252 O   0  0  0  0  0  0  0  0  0  0  0  0
   -6.2711   -3.9325  -22.0144 C   0  0  0  0  0  0  0  0  0  0  0  0
   -5.9073   -5.3835  -22.1245 C   0  0  0  0  0  0  0  0  0  0  0  0
   -6.3362   -6.1753  -23.3241 C   0  0  0  0  0  0  0  0  0  0  0  0
   -7.1289   -5.5160  -24.4136 C   0  0  0  0  0  0  0  0  0  0  0  0
   -7.5578   -6.3078  -25.6133 F   0  0  0  0  0  0  0  0  0  0  0  0
   -7.4927   -4.0650  -24.3035 C   0  0  0  0  0  0  0  0  0  0  0  0
   -7.0638   -3.2732  -23.1039 C   0  0  0  0  0  0  0  0  0  0  0  0
   -9.2478    1.1343  -24.7291 C   0  0  0  0  0  0  0  0  0  0  0  0
  -10.4181    1.6970  -23.9784 C   0  0  0  0  0  0  0  0  0  0  0  0
  -11.0373    2.9914  -24.4153 N   0  0  0  0  0  0  0  0  0  0  0  0
  -10.4861    3.7233  -25.6029 C   0  0  0  0  0  0  0  0  0  0  0  0
   -9.3157    3.1606  -26.3537 C   0  0  0  0  0  0  0  0  0  0  0  0
   -8.7645    3.8925  -27.5415 C   0  0  0  0  0  0  0  0  0  0  0  0
   -7.5941    3.3297  -28.2922 C   0  0  0  0  0  0  0  0  0  0  0  0
   -6.9750    2.0353  -27.8552 C   0  0  0  0  0  0  0  0  0  0  0  0
   -7.5262    1.3035  -26.6675 C   0  0  0  0  0  0  0  0  0  0  0  0
   -8.6965    1.8661  -25.9168 C   0  0  0  0  0  0  0  0  0  0  0  0
   -5.7770   -0.8978  -19.5049 C   0  0  0  0  0  0  0  0  0  0  0  0
   -4.6568    0.0929  -19.6216 C   0  0  0  0  0  0  0  0  0  0  0  0
   -3.7899    0.3056  -20.8270 C   0  0  0  0  0  0  0  0  0  0  0  0
   -2.8041    1.3890  -20.5037 N   0  0  0  0  0  0  0  0  0  0  0  0
   -3.0618    1.8459  -19.0983 N   0  0  0  0  0  0  0  0  0  0  0  0
   -4.2068    1.0448  -18.5532 N   0  0  0  0  0  0  0  0  0  0  0  0
   -2.5664    2.5481  -18.6181 H   0  0  0  0  0  0  0  0  0  0  0  0
  2  1  1  0  0  0
  2  3  1  0  0  0
  3  4  1  0  0  0
  4 19  1  0  0  0
 19 20  2  0  0  0
 20 21  1  0  0  0
 21 22  2  0  0  0
 22 23  1  0  0  0
 23 24  2  0  0  0
 24 25  1  0  0  0
 25 26  2  0  0  0
 26 27  1  0  0  0
 27 28  2  0  0  0
  4  5  1  0  0  0
  5  6  2  0  0  0
  5  7  1  0  0  0
  7  8  1  0  0  0
  8  9  1  0  0  0
  9 29  1  0  0  0
 29 30  1  0  0  0
 30 31  1  0  0  0
 31 32  2  0  0  0
 32 33  1  0  0  0
 33 34  1  0  0  0
  9 10  1  0  0  0
 10 11  2  0  0  0
 10 12  1  0  0  0
 12 13  2  0  0  0
 13 14  1  0  0  0
 14 15  2  0  0  0
 15 16  1  0  0  0
 15 17  1  0  0  0
 17 18  2  0  0  0
  7  2  1  0  0  0
 34 30  2  0  0  0
 18 12  1  0  0  0
 28 19  1  0  0  0
 18  7  1  0  0  0
 28 23  1  0  0  0
 33 35  1  0  0  0
M  END
> <minimizedAffinity>
-7.70309

> <CNNscore>
0.2712654471

> <CNNaffinity>
6.1118459702

> <CNN_VS>
1.6579326391

> <CNNaffinity_variance>
0.0525143929

$$$$



 35 40  0  0  0  0  0  0  0  0999 V2000
   -9.9549   -1.3410  -23.0377 C   0  0  0  0  0  0  0  0  0  0  0  0
   -9.3363    0.0079  -23.2567 C   0  0  0  0  0  0  0  0  0  0  0  0
   -7.8375   -0.0534  -23.2488 C   0  0  0  0  0  0  0  0  0  0  0  0
   -7.3157    1.3347  -23.4740 N   0  0  0  0  0  0  0  0  0  0  0  0
   -8.4919    2.2539  -23.6211 C   0  0  0  0  0  0  0  0  0  0  0  0
   -8.4302    3.7334  -23.8604 O   0  0  0  0  0  0  0  0  0  0  0  0
   -9.7407    1.4338  -23.4867 C   0  0  0  0  0  0  0  0  0  0  0  0
   -9.9920    2.8937  -23.7225 C   0  0  0  0  0  0  0  0  0  0  0  0
  -11.3983    3.4092  -23.8040 N   0  0  0  0  0  0  0  0  0  0  0  0
  -12.5533    2.4647  -23.6497 C   0  0  0  0  0  0  0  0  0  0  0  0
  -13.9596    2.9802  -23.7311 O   0  0  0  0  0  0  0  0  0  0  0  0
  -12.3021    1.0048  -23.4139 C   0  0  0  0  0  0  0  0  0  0  0  0
  -13.4572    0.0604  -23.2596 C   0  0  0  0  0  0  0  0  0  0  0  0
  -13.2059   -1.3995  -23.0238 C   0  0  0  0  0  0  0  0  0  0  0  0
  -11.7996   -1.9149  -22.9423 C   0  0  0  0  0  0  0  0  0  0  0  0
  -11.5484   -3.3749  -22.7066 F   0  0  0  0  0  0  0  0  0  0  0  0
  -10.6446   -0.9705  -23.0967 C   0  0  0  0  0  0  0  0  0  0  0  0
  -10.8958    0.4893  -23.3324 C   0  0  0  0  0  0  0  0  0  0  0  0
   -5.8713    1.7337  -23.5405 C   0  0  0  0  0  0  0  0  0  0  0  0
   -5.2985    2.2663  -24.8203 C   0  0  0  0  0  0  0  0  0  0  0  0
   -3.8540    2.6653  -24.8868 N   0  0  0  0  0  0  0  0  0  0  0  0
   -2.9824    2.5316  -23.6734 C   0  0  0  0  0  0  0  0  0  0  0  0
   -3.5553    1.9989  -22.3935 C   0  0  0  0  0  0  0  0  0  0  0  0
   -2.6836    1.8652  -21.1800 C   0  0  0  0  0  0  0  0  0  0  0  0
   -3.2565    1.3325  -19.9001 C   0  0  0  0  0  0  0  0  0  0  0  0
   -4.7009    0.9336  -19.8337 C   0  0  0  0  0  0  0  0  0  0  0  0
   -5.5725    1.0673  -21.0472 C   0  0  0  0  0  0  0  0  0  0  0  0
   -4.9997    1.5999  -22.3270 C   0  0  0  0  0  0  0  0  0  0  0  0
  -11.6495    4.8691  -24.0397 C   0  0  0  0  0  0  0  0  0  0  0  0
  -12.3329    5.3191  -25.2969 C   0  0  0  0  0  0  0  0  0  0  0  0
  -11.8857    5.0233  -26.6978 C   0  0  0  0  0  0  0  0  0  0  0  0
  -12.8599    5.6652  -27.6406 N   0  0  0  0  0  0  0  0  0  0  0  0
  -13.9091    6.3579  -26.8223 N   0  0  0  0  0  0  0  0  0  0  0  0
  -13.5834    6.1439  -25.3739 N   0  0  0  0  0  0  0  0  0  0  0  0
  -14.6767    6.8640  -27.1742 H   0  0  0  0  0  0  0  0  0  0  0  0
  2  1  1  0  0  0
  2  3  1  0  0  0
  3  4  1  0  0  0
  4 19  1  0  0  0
 19 20  2  0  0  0
 20 21  1  0  0  0
 21 22  2  0  0  0
 22 23  1  0  0  0
 23 24  2  0  0  0
 24 25  1  0  0  0
 25 26  2  0  0  0
 26 27  1  0  0  0
 27 28  2  0  0  0
  4  5  1  0  0  0
  5  6  2  0  0  0
  5  7  1  0  0  0
  7  8  1  0  0  0
  8  9  1  0  0  0
  9 29  1  0  0  0
 29 30  1  0  0  0
 30 31  1  0  0  0
 31 32  2  0  0  0
 32 33  1  0  0  0
 33 34  1  0  0  0
  9 10  1  0  0  0
 10 11  2  0  0  0
 10 12  1  0  0  0
 12 13  2  0  0  0
 13 14  1  0  0  0
 14 15  2  0  0  0
 15 16  1  0  0  0
 15 17  1  0  0  0
 17 18  2  0  0  0
  7  2  1  0  0  0
 34 30  2  0  0  0
 18 12  1  0  0  0
 28 19  1  0  0  0
 18  7  1  0  0  0
 28 23  1  0  0  0
 33 35  1  0  0  0
M  END
> <minimizedAffinity>
-7.84199

> <CNNscore>
0.2631264031

> <CNNaffinity>
6.1214737892

> <CNN_VS>
1.6107213497

> <CNNaffinity_variance>
0.0831726640

$$$$



 35 40  0  0  0  0  0  0  0  0999 V2000
   -8.0903   -2.6061  -25.8324 C   0  0  0  0  0  0  0  0  0  0  0  0
   -8.3055   -1.6775  -24.6742 C   0  0  0  0  0  0  0  0  0  0  0  0
   -9.1686   -0.5080  -25.0445 C   0  0  0  0  0  0  0  0  0  0  0  0
   -9.3244    0.3565  -23.8286 N   0  0  0  0  0  0  0  0  0  0  0  0
   -8.5575   -0.2788  -22.7068 C   0  0  0  0  0  0  0  0  0  0  0  0
   -8.4409    0.2502  -21.3081 O   0  0  0  0  0  0  0  0  0  0  0  0
   -7.9278   -1.5359  -23.2294 C   0  0  0  0  0  0  0  0  0  0  0  0
   -7.6342   -1.2617  -21.7843 C   0  0  0  0  0  0  0  0  0  0  0  0
   -6.7773   -2.2106  -20.9998 N   0  0  0  0  0  0  0  0  0  0  0  0
   -6.2139   -3.4336  -21.6606 C   0  0  0  0  0  0  0  0  0  0  0  0
   -5.3569   -4.3825  -20.8762 O   0  0  0  0  0  0  0  0  0  0  0  0
   -6.5074   -3.7079  -23.1059 C   0  0  0  0  0  0  0  0  0  0  0  0
   -5.9441   -4.9310  -23.7666 C   0  0  0  0  0  0  0  0  0  0  0  0
   -6.2376   -5.2052  -25.2118 C   0  0  0  0  0  0  0  0  0  0  0  0
   -7.0946   -4.2563  -25.9962 C   0  0  0  0  0  0  0  0  0  0  0  0
   -7.3881   -4.5306  -27.4415 F   0  0  0  0  0  0  0  0  0  0  0  0
   -7.6580   -3.0332  -25.3354 C   0  0  0  0  0  0  0  0  0  0  0  0
   -7.3644   -2.7590  -23.8903 C   0  0  0  0  0  0  0  0  0  0  0  0
  -10.1093    1.6323  -23.7485 C   0  0  0  0  0  0  0  0  0  0  0  0
  -11.5823    1.5903  -23.4688 C   0  0  0  0  0  0  0  0  0  0  0  0
  -12.3671    2.8661  -23.3887 N   0  0  0  0  0  0  0  0  0  0  0  0
  -11.6788    4.1838  -23.5883 C   0  0  0  0  0  0  0  0  0  0  0  0
  -10.2057    4.2257  -23.8679 C   0  0  0  0  0  0  0  0  0  0  0  0
   -9.5174    5.5436  -24.0675 C   0  0  0  0  0  0  0  0  0  0  0  0
   -8.0443    5.5854  -24.3471 C   0  0  0  0  0  0  0  0  0  0  0  0
   -7.2596    4.3097  -24.4272 C   0  0  0  0  0  0  0  0  0  0  0  0
   -7.9479    2.9919  -24.2277 C   0  0  0  0  0  0  0  0  0  0  0  0
   -9.4209    2.9500  -23.9480 C   0  0  0  0  0  0  0  0  0  0  0  0
   -6.4837   -1.9363  -19.5546 C   0  0  0  0  0  0  0  0  0  0  0  0
   -5.6695   -0.7369  -19.1691 C   0  0  0  0  0  0  0  0  0  0  0  0
   -4.7342    0.0189  -20.0657 C   0  0  0  0  0  0  0  0  0  0  0  0
   -4.1343    1.1401  -19.2702 N   0  0  0  0  0  0  0  0  0  0  0  0
   -4.6988    1.0772  -17.8818 N   0  0  0  0  0  0  0  0  0  0  0  0
   -5.6476   -0.0829  -17.8194 N   0  0  0  0  0  0  0  0  0  0  0  0
   -4.4842    1.6898  -17.1416 H   0  0  0  0  0  0  0  0  0  0  0  0
  2  1  1  0  0  0
  2  3  1  0  0  0
  3  4  1  0  0  0
  4 19  1  0  0  0
 19 20  2  0  0  0
 20 21  1  0  0  0
 21 22  2  0  0  0
 22 23  1  0  0  0
 23 24  2  0  0  0
 24 25  1  0  0  0
 25 26  2  0  0  0
 26 27  1  0  0  0
 27 28  2  0  0  0
  4  5  1  0  0  0
  5  6  2  0  0  0
  5  7  1  0  0  0
  7  8  1  0  0  0
  8  9  1  0  0  0
  9 29  1  0  0  0
 29 30  1  0  0  0
 30 31  1  0  0  0
 31 32  2  0  0  0
 32 33  1  0  0  0
 33 34  1  0  0  0
  9 10  1  0  0  0
 10 11  2  0  0  0
 10 12  1  0  0  0
 12 13  2  0  0  0
 13 14  1  0  0  0
 14 15  2  0  0  0
 15 16  1  0  0  0
 15 17  1  0  0  0
 17 18  2  0  0  0
  7  2  1  0  0  0
 34 30  2  0  0  0
 18 12  1  0  0  0
 28 19  1  0  0  0
 18  7  1  0  0  0
 28 23  1  0  0  0
 33 35  1  0  0  0
M  END
> <minimizedAffinity>
-8.08741

> <CNNscore>
0.2594702542

> <CNNaffinity>
6.3190503120

> <CNN_VS>
1.6396056414

> <CNNaffinity_variance>
0.0393573754

$$$$
