


 35 40  0  0  0  0  0  0  0  0999 V2000
   -7.8138   -1.5437  -24.1049 N   0  0  0  0  0  0  0  0  0  0  0  0
   -8.1148   -0.0807  -24.2437 C   0  0  0  0  0  0  0  0  0  0  0  0
   -9.5101    0.4224  -24.0200 C   0  0  0  0  0  0  0  0  0  0  0  0
  -10.8499    1.0690  -23.8277 C   0  0  0  0  0  0  0  0  0  0  0  0
  -11.9943    0.7733  -23.5464 O   0  0  0  0  0  0  0  0  0  0  0  0
  -10.6920    2.5418  -24.0643 N   0  0  0  0  0  0  0  0  0  0  0  0
   -9.2547    2.8054  -24.4027 C   0  0  0  0  0  0  0  0  0  0  0  0
   -8.5242    1.4956  -24.3753 C   0  0  0  0  0  0  0  0  0  0  0  0
   -7.0642    1.2943  -24.6543 C   0  0  0  0  0  0  0  0  0  0  0  0
  -10.6044   -0.5374  -23.6575 C   0  0  0  0  0  0  0  0  0  0  0  0
  -11.9997   -0.0343  -23.4338 C   0  0  0  0  0  0  0  0  0  0  0  0
  -13.0939   -0.9941  -23.0713 C   0  0  0  0  0  0  0  0  0  0  0  0
  -14.4892   -0.4910  -22.8476 F   0  0  0  0  0  0  0  0  0  0  0  0
  -12.7929   -2.4570  -22.9326 C   0  0  0  0  0  0  0  0  0  0  0  0
  -11.3976   -2.9601  -23.1563 C   0  0  0  0  0  0  0  0  0  0  0  0
  -10.3034   -2.0003  -23.5187 C   0  0  0  0  0  0  0  0  0  0  0  0
   -8.9080   -2.5035  -23.7424 C   0  0  0  0  0  0  0  0  0  0  0  0
   -8.6070   -3.9664  -23.6037 O   0  0  0  0  0  0  0  0  0  0  0  0
  -11.7804    3.5703  -23.9776 C   0  0  0  0  0  0  0  0  0  0  0  0
  -12.5432    3.7492  -22.6985 C   0  0  0  0  0  0  0  0  0  0  0  0
  -13.6316    4.7777  -22.6118 N   0  0  0  0  0  0  0  0  0  0  0  0
  -13.9572    5.6273  -23.8043 C   0  0  0  0  0  0  0  0  0  0  0  0
  -13.1944    5.4485  -25.0835 C   0  0  0  0  0  0  0  0  0  0  0  0
  -13.5201    6.2982  -26.2760 C   0  0  0  0  0  0  0  0  0  0  0  0
  -12.7573    6.1192  -27.5551 C   0  0  0  0  0  0  0  0  0  0  0  0
  -11.6689    5.0907  -27.6418 C   0  0  0  0  0  0  0  0  0  0  0  0
  -11.3433    4.2411  -26.4493 C   0  0  0  0  0  0  0  0  0  0  0  0
  -12.1060    4.4199  -25.1701 C   0  0  0  0  0  0  0  0  0  0  0  0
   -6.4185   -2.0468  -24.3286 C   0  0  0  0  0  0  0  0  0  0  0  0
   -6.3377   -5.3978  -28.4084 C   0  0  0  0  0  0  0  0  0  0  0  0
   -6.1503   -4.8100  -27.0412 C   0  0  0  0  0  0  0  0  0  0  0  0
   -6.5669   -3.4358  -26.6076 C   0  0  0  0  0  0  0  0  0  0  0  0
   -6.1874   -3.2697  -25.1659 C   0  0  0  0  0  0  0  0  0  0  0  0
   -5.5362   -4.5413  -24.7085 O   0  0  0  0  0  0  0  0  0  0  0  0
   -5.5133   -5.4932  -25.8676 N   0  0  0  0  0  0  0  0  0  0  0  0
 30 31  1  0  0  0
 31 32  1  0  0  0
 32 33  2  0  0  0
 33 29  1  0  0  0
 29  1  1  0  0  0
  1  2  1  0  0  0
  3  2  1  0  0  0
  3  4  1  0  0  0
  4  5  2  0  0  0
  4  6  1  0  0  0
  6 19  1  0  0  0
 19 20  2  0  0  0
 20 21  1  0  0  0
 21 22  2  0  0  0
 22 23  1  0  0  0
 23 24  2  0  0  0
 24 25  1  0  0  0
 25 26  2  0  0  0
 26 27  1  0  0  0
 27 28  2  0  0  0
  6  7  1  0  0  0
  7  8  1  0  0  0
  8  9  1  0  0  0
  3 10  1  0  0  0
 10 11  2  0  0  0
 11 12  1  0  0  0
 12 13  1  0  0  0
 12 14  2  0  0  0
 14 15  1  0  0  0
 15 16  2  0  0  0
 16 17  1  0  0  0
 17 18  2  0  0  0
 33 34  1  0  0  0
 34 35  1  0  0  0
 35 31  2  0  0  0
 17  1  1  0  0  0
  8  3  1  0  0  0
 16 10  1  0  0  0
 28 19  1  0  0  0
 28 23  1  0  0  0
M  END
> <minimizedAffinity>
-7.30803

> <CNNscore>
0.7646887302

> <CNNaffinity>
6.7783317566

> <CNN_VS>
5.1833138466

> <CNNaffinity_variance>
0.0998717770

$$$$



 35 40  0  0  0  0  0  0  0  0999 V2000
   -7.6199   -1.2161  -22.9089 N   0  0  0  0  0  0  0  0  0  0  0  0
   -7.8503    0.2393  -23.1895 C   0  0  0  0  0  0  0  0  0  0  0  0
   -9.2489    0.7671  -23.3128 C   0  0  0  0  0  0  0  0  0  0  0  0
  -10.5833    1.4358  -23.4620 C   0  0  0  0  0  0  0  0  0  0  0  0
  -11.7678    1.1671  -23.4303 O   0  0  0  0  0  0  0  0  0  0  0  0
  -10.3445    2.8913  -23.7348 N   0  0  0  0  0  0  0  0  0  0  0  0
   -8.8625    3.1222  -23.7543 C   0  0  0  0  0  0  0  0  0  0  0  0
   -8.1854    1.8093  -23.4935 C   0  0  0  0  0  0  0  0  0  0  0  0
   -6.7047    1.5791  -23.4254 C   0  0  0  0  0  0  0  0  0  0  0  0
  -10.4172   -0.1606  -23.1556 C   0  0  0  0  0  0  0  0  0  0  0  0
  -11.8158    0.3672  -23.2790 C   0  0  0  0  0  0  0  0  0  0  0  0
  -12.9840   -0.5604  -23.1218 C   0  0  0  0  0  0  0  0  0  0  0  0
  -14.3828   -0.0326  -23.2452 F   0  0  0  0  0  0  0  0  0  0  0  0
  -12.7536   -2.0158  -22.8413 C   0  0  0  0  0  0  0  0  0  0  0  0
  -11.3550   -2.5436  -22.7179 C   0  0  0  0  0  0  0  0  0  0  0  0
  -10.1868   -1.6160  -22.8751 C   0  0  0  0  0  0  0  0  0  0  0  0
   -8.7881   -2.1437  -22.7517 C   0  0  0  0  0  0  0  0  0  0  0  0
   -8.5577   -3.5992  -22.4712 O   0  0  0  0  0  0  0  0  0  0  0  0
  -11.4020    3.9330  -23.9503 C   0  0  0  0  0  0  0  0  0  0  0  0
  -12.2631    4.3759  -22.8047 C   0  0  0  0  0  0  0  0  0  0  0  0
  -13.3206    5.4176  -23.0202 N   0  0  0  0  0  0  0  0  0  0  0  0
  -13.5170    6.0165  -24.3813 C   0  0  0  0  0  0  0  0  0  0  0  0
  -12.6559    5.5737  -25.5269 C   0  0  0  0  0  0  0  0  0  0  0  0
  -12.8524    6.1726  -26.8881 C   0  0  0  0  0  0  0  0  0  0  0  0
  -11.9913    5.7297  -28.0337 C   0  0  0  0  0  0  0  0  0  0  0  0
  -10.9338    4.6880  -27.8182 C   0  0  0  0  0  0  0  0  0  0  0  0
  -10.7373    4.0891  -26.4571 C   0  0  0  0  0  0  0  0  0  0  0  0
  -11.5984    4.5319  -25.3114 C   0  0  0  0  0  0  0  0  0  0  0  0
   -6.2212   -1.7439  -22.7855 C   0  0  0  0  0  0  0  0  0  0  0  0
   -5.6058   -6.7318  -21.1659 C   0  0  0  0  0  0  0  0  0  0  0  0
   -5.6614   -5.2329  -21.1796 C   0  0  0  0  0  0  0  0  0  0  0  0
   -6.0134   -4.3744  -22.3582 C   0  0  0  0  0  0  0  0  0  0  0  0
   -5.9443   -2.9402  -21.9240 C   0  0  0  0  0  0  0  0  0  0  0  0
   -5.5496   -2.9124  -20.4771 O   0  0  0  0  0  0  0  0  0  0  0  0
   -5.3748   -4.3294  -20.0171 N   0  0  0  0  0  0  0  0  0  0  0  0
 30 31  1  0  0  0
 31 32  1  0  0  0
 32 33  2  0  0  0
 33 29  1  0  0  0
 29  1  1  0  0  0
  1  2  1  0  0  0
  3  2  1  0  0  0
  3  4  1  0  0  0
  4  5  2  0  0  0
  4  6  1  0  0  0
  6 19  1  0  0  0
 19 20  2  0  0  0
 20 21  1  0  0  0
 21 22  2  0  0  0
 22 23  1  0  0  0
 23 24  2  0  0  0
 24 25  1  0  0  0
 25 26  2  0  0  0
 26 27  1  0  0  0
 27 28  2  0  0  0
  6  7  1  0  0  0
  7  8  1  0  0  0
  8  9  1  0  0  0
  3 10  1  0  0  0
 10 11  2  0  0  0
 11 12  1  0  0  0
 12 13  1  0  0  0
 12 14  2  0  0  0
 14 15  1  0  0  0
 15 16  2  0  0  0
 16 17  1  0  0  0
 17 18  2  0  0  0
 33 34  1  0  0  0
 34 35  1  0  0  0
 35 31  2  0  0  0
 17  1  1  0  0  0
  8  3  1  0  0  0
 16 10  1  0  0  0
 28 19  1  0  0  0
 28 23  1  0  0  0
M  END
> <minimizedAffinity>
-8.24341

> <CNNscore>
0.6526107788

> <CNNaffinity>
6.5329179764

> <CNN_VS>
4.2634525299

> <CNNaffinity_variance>
0.0998324007

$$$$



 35 40  0  0  0  0  0  0  0  0999 V2000
   -7.2368   -1.1524  -22.4360 N   0  0  0  0  0  0  0  0  0  0  0  0
   -7.2867    0.1877  -23.1080 C   0  0  0  0  0  0  0  0  0  0  0  0
   -8.5929    0.7256  -23.6124 C   0  0  0  0  0  0  0  0  0  0  0  0
   -9.8192    1.3898  -24.1648 C   0  0  0  0  0  0  0  0  0  0  0  0
  -11.0119    1.1908  -24.2840 O   0  0  0  0  0  0  0  0  0  0  0  0
   -9.4095    2.7115  -24.7439 N   0  0  0  0  0  0  0  0  0  0  0  0
   -7.9300    2.8641  -24.5494 C   0  0  0  0  0  0  0  0  0  0  0  0
   -7.4254    1.6368  -23.8502 C   0  0  0  0  0  0  0  0  0  0  0  0
   -6.0029    1.3678  -23.4575 C   0  0  0  0  0  0  0  0  0  0  0  0
   -9.8493   -0.0766  -23.4448 C   0  0  0  0  0  0  0  0  0  0  0  0
  -11.1555    0.4612  -23.9493 C   0  0  0  0  0  0  0  0  0  0  0  0
  -12.4118   -0.3410  -23.7816 C   0  0  0  0  0  0  0  0  0  0  0  0
  -13.7181    0.1969  -24.2861 F   0  0  0  0  0  0  0  0  0  0  0  0
  -12.3619   -1.6811  -23.1096 C   0  0  0  0  0  0  0  0  0  0  0  0
  -11.0557   -2.2190  -22.6051 C   0  0  0  0  0  0  0  0  0  0  0  0
   -9.7994   -1.4167  -22.7728 C   0  0  0  0  0  0  0  0  0  0  0  0
   -8.4931   -1.9546  -22.2683 C   0  0  0  0  0  0  0  0  0  0  0  0
   -8.4432   -3.2947  -21.5963 O   0  0  0  0  0  0  0  0  0  0  0  0
  -10.3195    3.7059  -25.4019 C   0  0  0  0  0  0  0  0  0  0  0  0
  -10.1290    4.0545  -26.8483 C   0  0  0  0  0  0  0  0  0  0  0  0
  -11.0390    5.0490  -27.5063 N   0  0  0  0  0  0  0  0  0  0  0  0
  -12.1396    5.6948  -26.7178 C   0  0  0  0  0  0  0  0  0  0  0  0
  -12.3301    5.3462  -25.2714 C   0  0  0  0  0  0  0  0  0  0  0  0
  -13.4307    5.9920  -24.4829 C   0  0  0  0  0  0  0  0  0  0  0  0
  -13.6212    5.6434  -23.0365 C   0  0  0  0  0  0  0  0  0  0  0  0
  -12.7111    4.6490  -22.3785 C   0  0  0  0  0  0  0  0  0  0  0  0
  -11.6106    4.0031  -23.1669 C   0  0  0  0  0  0  0  0  0  0  0  0
  -11.4201    4.3517  -24.6134 C   0  0  0  0  0  0  0  0  0  0  0  0
   -5.9305   -1.6902  -21.9315 C   0  0  0  0  0  0  0  0  0  0  0  0
   -5.7957   -6.9418  -22.4643 C   0  0  0  0  0  0  0  0  0  0  0  0
   -5.7272   -5.5659  -21.8709 C   0  0  0  0  0  0  0  0  0  0  0  0
   -5.9578   -4.2773  -22.6033 C   0  0  0  0  0  0  0  0  0  0  0  0
   -5.7892   -3.1520  -21.6260 C   0  0  0  0  0  0  0  0  0  0  0  0
   -5.4543   -3.7450  -20.2895 O   0  0  0  0  0  0  0  0  0  0  0  0
   -5.4160   -5.2369  -20.4409 N   0  0  0  0  0  0  0  0  0  0  0  0
 30 31  1  0  0  0
 31 32  1  0  0  0
 32 33  2  0  0  0
 33 29  1  0  0  0
 29  1  1  0  0  0
  1  2  1  0  0  0
  3  2  1  0  0  0
  3  4  1  0  0  0
  4  5  2  0  0  0
  4  6  1  0  0  0
  6 19  1  0  0  0
 19 20  2  0  0  0
 20 21  1  0  0  0
 21 22  2  0  0  0
 22 23  1  0  0  0
 23 24  2  0  0  0
 24 25  1  0  0  0
 25 26  2  0  0  0
 26 27  1  0  0  0
 27 28  2  0  0  0
  6  7  1  0  0  0
  7  8  1  0  0  0
  8  9  1  0  0  0
  3 10  1  0  0  0
 10 11  2  0  0  0
 11 12  1  0  0  0
 12 13  1  0  0  0
 12 14  2  0  0  0
 14 15  1  0  0  0
 15 16  2  0  0  0
 16 17  1  0  0  0
 17 18  2  0  0  0
 33 34  1  0  0  0
 34 35  1  0  0  0
 35 31  2  0  0  0
 17  1  1  0  0  0
  8  3  1  0  0  0
 16 10  1  0  0  0
 28 19  1  0  0  0
 28 23  1  0  0  0
M  END
> <minimizedAffinity>
-7.72919

> <CNNscore>
0.4829556346

> <CNNaffinity>
6.3189620972

> <CNN_VS>
3.0517783165

> <CNNaffinity_variance>
0.2918795943

$$$$



 35 40  0  0  0  0  0  0  0  0999 V2000
  -11.0475    3.4418  -23.9158 N   0  0  0  0  0  0  0  0  0  0  0  0
   -9.7438    2.7000  -23.9129 C   0  0  0  0  0  0  0  0  0  0  0  0
   -9.7266    1.2144  -23.7066 C   0  0  0  0  0  0  0  0  0  0  0  0
   -9.5531   -0.2630  -23.5135 C   0  0  0  0  0  0  0  0  0  0  0  0
  -10.2190   -1.2612  -23.3226 O   0  0  0  0  0  0  0  0  0  0  0  0
   -8.0867   -0.5707  -23.5838 N   0  0  0  0  0  0  0  0  0  0  0  0
   -7.3538    0.7165  -23.8204 C   0  0  0  0  0  0  0  0  0  0  0  0
   -8.3673    1.8198  -23.8962 C   0  0  0  0  0  0  0  0  0  0  0  0
   -8.0732    3.2732  -24.1221 C   0  0  0  0  0  0  0  0  0  0  0  0
  -11.0132    0.4705  -23.5032 C   0  0  0  0  0  0  0  0  0  0  0  0
  -10.9960   -1.0151  -23.2969 C   0  0  0  0  0  0  0  0  0  0  0  0
  -12.2826   -1.7590  -23.0935 C   0  0  0  0  0  0  0  0  0  0  0  0
  -12.2654   -3.2447  -22.8872 F   0  0  0  0  0  0  0  0  0  0  0  0
  -13.5863   -1.0172  -23.0964 C   0  0  0  0  0  0  0  0  0  0  0  0
  -13.6035    0.4684  -23.3027 C   0  0  0  0  0  0  0  0  0  0  0  0
  -12.3169    1.2123  -23.5061 C   0  0  0  0  0  0  0  0  0  0  0  0
  -12.3341    2.6980  -23.7124 C   0  0  0  0  0  0  0  0  0  0  0  0
  -13.6378    3.4397  -23.7153 O   0  0  0  0  0  0  0  0  0  0  0  0
   -7.4628   -1.9274  -23.4424 C   0  0  0  0  0  0  0  0  0  0  0  0
   -6.8327   -2.3314  -22.1425 C   0  0  0  0  0  0  0  0  0  0  0  0
   -6.2087   -3.6881  -22.0011 N   0  0  0  0  0  0  0  0  0  0  0  0
   -6.2149   -4.6408  -23.1597 C   0  0  0  0  0  0  0  0  0  0  0  0
   -6.8450   -4.2368  -24.4596 C   0  0  0  0  0  0  0  0  0  0  0  0
   -6.8512   -5.1896  -25.6182 C   0  0  0  0  0  0  0  0  0  0  0  0
   -7.4813   -4.7856  -26.9181 C   0  0  0  0  0  0  0  0  0  0  0  0
   -8.1052   -3.4289  -27.0595 C   0  0  0  0  0  0  0  0  0  0  0  0
   -8.0991   -2.4761  -25.9009 C   0  0  0  0  0  0  0  0  0  0  0  0
   -7.4689   -2.8801  -24.6010 C   0  0  0  0  0  0  0  0  0  0  0  0
  -11.0647    4.9275  -24.1221 C   0  0  0  0  0  0  0  0  0  0  0  0
  -13.1470    6.1161  -28.8265 C   0  0  0  0  0  0  0  0  0  0  0  0
  -12.8923    6.0732  -27.3490 C   0  0  0  0  0  0  0  0  0  0  0  0
  -11.8282    5.2708  -26.6606 C   0  0  0  0  0  0  0  0  0  0  0  0
  -11.9351    5.5269  -25.1865 C   0  0  0  0  0  0  0  0  0  0  0  0
  -13.0654    6.4876  -24.9638 O   0  0  0  0  0  0  0  0  0  0  0  0
  -13.6569    6.8252  -26.3003 N   0  0  0  0  0  0  0  0  0  0  0  0
 30 31  1  0  0  0
 31 32  1  0  0  0
 32 33  2  0  0  0
 33 29  1  0  0  0
 29  1  1  0  0  0
  1  2  1  0  0  0
  3  2  1  0  0  0
  3  4  1  0  0  0
  4  5  2  0  0  0
  4  6  1  0  0  0
  6 19  1  0  0  0
 19 20  2  0  0  0
 20 21  1  0  0  0
 21 22  2  0  0  0
 22 23  1  0  0  0
 23 24  2  0  0  0
 24 25  1  0  0  0
 25 26  2  0  0  0
 26 27  1  0  0  0
 27 28  2  0  0  0
  6  7  1  0  0  0
  7  8  1  0  0  0
  8  9  1  0  0  0
  3 10  1  0  0  0
 10 11  2  0  0  0
 11 12  1  0  0  0
 12 13  1  0  0  0
 12 14  2  0  0  0
 14 15  1  0  0  0
 15 16  2  0  0  0
 16 17  1  0  0  0
 17 18  2  0  0  0
 33 34  1  0  0  0
 34 35  1  0  0  0
 35 31  2  0  0  0
 17  1  1  0  0  0
  8  3  1  0  0  0
 16 10  1  0  0  0
 28 19  1  0  0  0
 28 23  1  0  0  0
M  END
> <minimizedAffinity>
-7.72336

> <CNNscore>
0.4586087167

> <CNNaffinity>
6.5969557762

> <CNN_VS>
3.0254213810

> <CNNaffinity_variance>
0.3873190582

$$$$



 35 40  0  0  0  0  0  0  0  0999 V2000
   -5.5701   -6.3061  -23.8888 N   0  0  0  0  0  0  0  0  0  0  0  0
   -6.1309   -5.0663  -23.2574 C   0  0  0  0  0  0  0  0  0  0  0  0
   -7.1830   -4.2710  -23.9718 C   0  0  0  0  0  0  0  0  0  0  0  0
   -8.2336   -3.3783  -24.5630 C   0  0  0  0  0  0  0  0  0  0  0  0
   -8.9220   -3.2846  -25.5598 O   0  0  0  0  0  0  0  0  0  0  0  0
   -8.4916   -2.2619  -23.5950 N   0  0  0  0  0  0  0  0  0  0  0  0
   -7.6004   -2.4645  -22.4056 C   0  0  0  0  0  0  0  0  0  0  0  0
   -6.7917   -3.7062  -22.6385 C   0  0  0  0  0  0  0  0  0  0  0  0
   -5.7709   -4.2820  -21.7023 C   0  0  0  0  0  0  0  0  0  0  0  0
   -7.6744   -4.7154  -25.3177 C   0  0  0  0  0  0  0  0  0  0  0  0
   -8.7265   -3.9200  -26.0321 C   0  0  0  0  0  0  0  0  0  0  0  0
   -9.2179   -4.3644  -27.3778 C   0  0  0  0  0  0  0  0  0  0  0  0
  -10.2700   -3.5690  -28.0923 F   0  0  0  0  0  0  0  0  0  0  0  0
   -8.6571   -5.6041  -28.0091 C   0  0  0  0  0  0  0  0  0  0  0  0
   -7.6050   -6.3995  -27.2947 C   0  0  0  0  0  0  0  0  0  0  0  0
   -7.1136   -5.9551  -25.9490 C   0  0  0  0  0  0  0  0  0  0  0  0
   -6.0615   -6.7505  -25.2345 C   0  0  0  0  0  0  0  0  0  0  0  0
   -5.5007   -7.9902  -25.8658 O   0  0  0  0  0  0  0  0  0  0  0  0
   -9.4690   -1.1398  -23.7835 C   0  0  0  0  0  0  0  0  0  0  0  0
   -9.0063    0.1715  -24.3460 C   0  0  0  0  0  0  0  0  0  0  0  0
   -9.9838    1.2935  -24.5344 N   0  0  0  0  0  0  0  0  0  0  0  0
  -11.4240    1.1043  -24.1603 C   0  0  0  0  0  0  0  0  0  0  0  0
  -11.8867   -0.2070  -23.5977 C   0  0  0  0  0  0  0  0  0  0  0  0
  -13.3270   -0.3962  -23.2236 C   0  0  0  0  0  0  0  0  0  0  0  0
  -13.7896   -1.7075  -22.6611 C   0  0  0  0  0  0  0  0  0  0  0  0
  -12.8121   -2.8296  -22.4727 C   0  0  0  0  0  0  0  0  0  0  0  0
  -11.3719   -2.6404  -22.8468 C   0  0  0  0  0  0  0  0  0  0  0  0
  -10.9092   -1.3291  -23.4093 C   0  0  0  0  0  0  0  0  0  0  0  0
   -4.5180   -7.1014  -23.1743 C   0  0  0  0  0  0  0  0  0  0  0  0
    0.7198   -7.7413  -23.3675 C   0  0  0  0  0  0  0  0  0  0  0  0
   -0.6753   -7.2925  -23.6871 C   0  0  0  0  0  0  0  0  0  0  0  0
   -1.9171   -7.6704  -22.9355 C   0  0  0  0  0  0  0  0  0  0  0  0
   -3.0828   -6.9983  -23.5983 C   0  0  0  0  0  0  0  0  0  0  0  0
   -2.5615   -6.2049  -24.7597 O   0  0  0  0  0  0  0  0  0  0  0  0
   -1.0735   -6.3867  -24.8145 N   0  0  0  0  0  0  0  0  0  0  0  0
 30 31  1  0  0  0
 31 32  1  0  0  0
 32 33  2  0  0  0
 33 29  1  0  0  0
 29  1  1  0  0  0
  1  2  1  0  0  0
  3  2  1  0  0  0
  3  4  1  0  0  0
  4  5  2  0  0  0
  4  6  1  0  0  0
  6 19  1  0  0  0
 19 20  2  0  0  0
 20 21  1  0  0  0
 21 22  2  0  0  0
 22 23  1  0  0  0
 23 24  2  0  0  0
 24 25  1  0  0  0
 25 26  2  0  0  0
 26 27  1  0  0  0
 27 28  2  0  0  0
  6  7  1  0  0  0
  7  8  1  0  0  0
  8  9  1  0  0  0
  3 10  1  0  0  0
 10 11  2  0  0  0
 11 12  1  0  0  0
 12 13  1  0  0  0
 12 14  2  0  0  0
 14 15  1  0  0  0
 15 16  2  0  0  0
 16 17  1  0  0  0
 17 18  2  0  0  0
 33 34  1  0  0  0
 34 35  1  0  0  0
 35 31  2  0  0  0
 17  1  1  0  0  0
  8  3  1  0  0  0
 16 10  1  0  0  0
 28 19  1  0  0  0
 28 23  1  0  0  0
M  END
> <minimizedAffinity>
-7.71642

> <CNNscore>
0.4573391080

> <CNNaffinity>
6.5205903053

> <CNN_VS>
2.9821209908

> <CNNaffinity_variance>
0.0786361694

$$$$



 35 40  0  0  0  0  0  0  0  0999 V2000
   -9.2891    2.5612  -24.4561 N   0  0  0  0  0  0  0  0  0  0  0  0
   -8.3764    1.3783  -24.5891 C   0  0  0  0  0  0  0  0  0  0  0  0
   -8.8850    0.0005  -24.2843 C   0  0  0  0  0  0  0  0  0  0  0  0
   -9.2500   -1.4294  -24.0155 C   0  0  0  0  0  0  0  0  0  0  0  0
  -10.2020   -2.0963  -23.6615 O   0  0  0  0  0  0  0  0  0  0  0  0
   -8.0376   -2.2738  -24.2745 N   0  0  0  0  0  0  0  0  0  0  0  0
   -6.9233   -1.3658  -24.7034 C   0  0  0  0  0  0  0  0  0  0  0  0
   -7.4471    0.0397  -24.7094 C   0  0  0  0  0  0  0  0  0  0  0  0
   -6.6693    1.2688  -25.0761 C   0  0  0  0  0  0  0  0  0  0  0  0
  -10.3064   -0.1945  -23.8464 C   0  0  0  0  0  0  0  0  0  0  0  0
  -10.8151   -1.5722  -23.5415 C   0  0  0  0  0  0  0  0  0  0  0  0
  -12.2364   -1.7671  -23.1037 C   0  0  0  0  0  0  0  0  0  0  0  0
  -12.7451   -3.1450  -22.7988 F   0  0  0  0  0  0  0  0  0  0  0  0
  -13.1491   -0.5842  -22.9706 C   0  0  0  0  0  0  0  0  0  0  0  0
  -12.6405    0.7936  -23.2755 C   0  0  0  0  0  0  0  0  0  0  0  0
  -11.2192    0.9884  -23.7133 C   0  0  0  0  0  0  0  0  0  0  0  0
  -10.7105    2.3663  -24.0182 C   0  0  0  0  0  0  0  0  0  0  0  0
  -11.6232    3.5492  -23.8852 O   0  0  0  0  0  0  0  0  0  0  0  0
   -7.9542   -3.7645  -24.1301 C   0  0  0  0  0  0  0  0  0  0  0  0
   -7.3677   -4.3660  -22.8874 C   0  0  0  0  0  0  0  0  0  0  0  0
   -7.2842   -5.8567  -22.7430 N   0  0  0  0  0  0  0  0  0  0  0  0
   -7.7874   -6.7459  -23.8412 C   0  0  0  0  0  0  0  0  0  0  0  0
   -8.3740   -6.1444  -25.0839 C   0  0  0  0  0  0  0  0  0  0  0  0
   -8.8771   -7.0337  -26.1821 C   0  0  0  0  0  0  0  0  0  0  0  0
   -9.4637   -6.4322  -27.4247 C   0  0  0  0  0  0  0  0  0  0  0  0
   -9.5471   -4.9415  -27.5692 C   0  0  0  0  0  0  0  0  0  0  0  0
   -9.0439   -4.0523  -26.4710 C   0  0  0  0  0  0  0  0  0  0  0  0
   -8.4574   -4.6537  -25.2283 C   0  0  0  0  0  0  0  0  0  0  0  0
   -8.7804    3.9390  -24.7610 C   0  0  0  0  0  0  0  0  0  0  0  0
   -6.3069    7.1729  -21.3988 C   0  0  0  0  0  0  0  0  0  0  0  0
   -6.5895    6.0451  -22.3465 C   0  0  0  0  0  0  0  0  0  0  0  0
   -7.8916    5.7851  -23.0443 C   0  0  0  0  0  0  0  0  0  0  0  0
   -7.7265    4.5587  -23.8920 C   0  0  0  0  0  0  0  0  0  0  0  0
   -6.3222    4.0606  -23.7180 O   0  0  0  0  0  0  0  0  0  0  0  0
   -5.6196    4.9793  -22.7628 N   0  0  0  0  0  0  0  0  0  0  0  0
 30 31  1  0  0  0
 31 32  1  0  0  0
 32 33  2  0  0  0
 33 29  1  0  0  0
 29  1  1  0  0  0
  1  2  1  0  0  0
  3  2  1  0  0  0
  3  4  1  0  0  0
  4  5  2  0  0  0
  4  6  1  0  0  0
  6 19  1  0  0  0
 19 20  2  0  0  0
 20 21  1  0  0  0
 21 22  2  0  0  0
 22 23  1  0  0  0
 23 24  2  0  0  0
 24 25  1  0  0  0
 25 26  2  0  0  0
 26 27  1  0  0  0
 27 28  2  0  0  0
  6  7  1  0  0  0
  7  8  1  0  0  0
  8  9  1  0  0  0
  3 10  1  0  0  0
 10 11  2  0  0  0
 11 12  1  0  0  0
 12 13  1  0  0  0
 12 14  2  0  0  0
 14 15  1  0  0  0
 15 16  2  0  0  0
 16 17  1  0  0  0
 17 18  2  0  0  0
 33 34  1  0  0  0
 34 35  1  0  0  0
 35 31  2  0  0  0
 17  1  1  0  0  0
  8  3  1  0  0  0
 16 10  1  0  0  0
 28 19  1  0  0  0
 28 23  1  0  0  0
M  END
> <minimizedAffinity>
-7.83309

> <CNNscore>
0.4014261067

> <CNNaffinity>
6.4747972488

> <CNN_VS>
2.5991525650

> <CNNaffinity_variance>
0.1040842161

$$$$



 35 40  0  0  0  0  0  0  0  0999 V2000
   -6.9912   -0.5409  -22.4616 N   0  0  0  0  0  0  0  0  0  0  0  0
   -7.3182    0.8714  -22.8469 C   0  0  0  0  0  0  0  0  0  0  0  0
   -8.7239    1.2416  -23.2168 C   0  0  0  0  0  0  0  0  0  0  0  0
  -10.0766    1.7579  -23.6089 C   0  0  0  0  0  0  0  0  0  0  0  0
  -11.2172    1.3647  -23.7525 O   0  0  0  0  0  0  0  0  0  0  0  0
   -9.9443    3.2210  -23.9121 N   0  0  0  0  0  0  0  0  0  0  0  0
   -8.5099    3.6089  -23.7074 C   0  0  0  0  0  0  0  0  0  0  0  0
   -7.7557    2.3856  -23.2777 C   0  0  0  0  0  0  0  0  0  0  0  0
   -6.2904    2.3182  -22.9640 C   0  0  0  0  0  0  0  0  0  0  0  0
   -9.8027    0.1995  -23.2014 C   0  0  0  0  0  0  0  0  0  0  0  0
  -11.2085    0.5696  -23.5713 C   0  0  0  0  0  0  0  0  0  0  0  0
  -12.2872   -0.4725  -23.5559 C   0  0  0  0  0  0  0  0  0  0  0  0
  -13.6930   -0.1023  -23.9258 F   0  0  0  0  0  0  0  0  0  0  0  0
  -11.9602   -1.8848  -23.1706 C   0  0  0  0  0  0  0  0  0  0  0  0
  -10.5545   -2.2550  -22.8007 C   0  0  0  0  0  0  0  0  0  0  0  0
   -9.4758   -1.2129  -22.8161 C   0  0  0  0  0  0  0  0  0  0  0  0
   -8.0700   -1.5830  -22.4462 C   0  0  0  0  0  0  0  0  0  0  0  0
   -7.7430   -2.9953  -22.0609 O   0  0  0  0  0  0  0  0  0  0  0  0
  -11.0520    4.1355  -24.3441 C   0  0  0  0  0  0  0  0  0  0  0  0
  -11.9868    4.7153  -23.3242 C   0  0  0  0  0  0  0  0  0  0  0  0
  -13.0945    5.6298  -23.7563 N   0  0  0  0  0  0  0  0  0  0  0  0
  -13.2674    5.9646  -25.2081 C   0  0  0  0  0  0  0  0  0  0  0  0
  -12.3326    5.3848  -26.2280 C   0  0  0  0  0  0  0  0  0  0  0  0
  -12.5056    5.7196  -27.6800 C   0  0  0  0  0  0  0  0  0  0  0  0
  -11.5708    5.1398  -28.6998 C   0  0  0  0  0  0  0  0  0  0  0  0
  -10.4631    4.2252  -28.2677 C   0  0  0  0  0  0  0  0  0  0  0  0
  -10.2902    3.8905  -26.8159 C   0  0  0  0  0  0  0  0  0  0  0  0
  -11.2249    4.4703  -25.7960 C   0  0  0  0  0  0  0  0  0  0  0  0
   -5.5854   -0.9111  -22.0917 C   0  0  0  0  0  0  0  0  0  0  0  0
   -1.8505    2.1384  -19.9396 C   0  0  0  0  0  0  0  0  0  0  0  0
   -3.1028    1.3345  -20.1270 C   0  0  0  0  0  0  0  0  0  0  0  0
   -3.4984    0.5957  -21.3711 C   0  0  0  0  0  0  0  0  0  0  0  0
   -4.8196   -0.0672  -21.1162 C   0  0  0  0  0  0  0  0  0  0  0  0
   -5.2407    0.2619  -19.7146 O   0  0  0  0  0  0  0  0  0  0  0  0
   -4.1796    1.1282  -19.1033 N   0  0  0  0  0  0  0  0  0  0  0  0
 30 31  1  0  0  0
 31 32  1  0  0  0
 32 33  2  0  0  0
 33 29  1  0  0  0
 29  1  1  0  0  0
  1  2  1  0  0  0
  3  2  1  0  0  0
  3  4  1  0  0  0
  4  5  2  0  0  0
  4  6  1  0  0  0
  6 19  1  0  0  0
 19 20  2  0  0  0
 20 21  1  0  0  0
 21 22  2  0  0  0
 22 23  1  0  0  0
 23 24  2  0  0  0
 24 25  1  0  0  0
 25 26  2  0  0  0
 26 27  1  0  0  0
 27 28  2  0  0  0
  6  7  1  0  0  0
  7  8  1  0  0  0
  8  9  1  0  0  0
  3 10  1  0  0  0
 10 11  2  0  0  0
 11 12  1  0  0  0
 12 13  1  0  0  0
 12 14  2  0  0  0
 14 15  1  0  0  0
 15 16  2  0  0  0
 16 17  1  0  0  0
 17 18  2  0  0  0
 33 34  1  0  0  0
 34 35  1  0  0  0
 35 31  2  0  0  0
 17  1  1  0  0  0
  8  3  1  0  0  0
 16 10  1  0  0  0
 28 19  1  0  0  0
 28 23  1  0  0  0
M  END
> <minimizedAffinity>
-8.56683

> <CNNscore>
0.2841513455

> <CNNaffinity>
6.1165466309

> <CNN_VS>
1.7380249500

> <CNNaffinity_variance>
0.1292311251

$$$$



 35 40  0  0  0  0  0  0  0  0999 V2000
   -6.5277   -0.5204  -22.5681 N   0  0  0  0  0  0  0  0  0  0  0  0
   -6.7706    0.7634  -23.3050 C   0  0  0  0  0  0  0  0  0  0  0  0
   -8.1481    1.0975  -23.7957 C   0  0  0  0  0  0  0  0  0  0  0  0
   -9.4642    1.5646  -24.3431 C   0  0  0  0  0  0  0  0  0  0  0  0
  -10.6225    1.2049  -24.4155 O   0  0  0  0  0  0  0  0  0  0  0  0
   -9.2470    2.8953  -25.0003 N   0  0  0  0  0  0  0  0  0  0  0  0
   -7.7965    3.2507  -24.8591 C   0  0  0  0  0  0  0  0  0  0  0  0
   -7.1174    2.1396  -24.1147 C   0  0  0  0  0  0  0  0  0  0  0  0
   -5.6629    2.0809  -23.7527 C   0  0  0  0  0  0  0  0  0  0  0  0
   -9.2828    0.1478  -23.5495 C   0  0  0  0  0  0  0  0  0  0  0  0
  -10.6603    0.4819  -24.0402 C   0  0  0  0  0  0  0  0  0  0  0  0
  -11.7950   -0.4677  -23.7940 C   0  0  0  0  0  0  0  0  0  0  0  0
  -13.1726   -0.1337  -24.2847 F   0  0  0  0  0  0  0  0  0  0  0  0
  -11.5521   -1.7515  -23.0571 C   0  0  0  0  0  0  0  0  0  0  0  0
  -10.1746   -2.0856  -22.5665 C   0  0  0  0  0  0  0  0  0  0  0  0
   -9.0400   -1.1360  -22.8127 C   0  0  0  0  0  0  0  0  0  0  0  0
   -7.6624   -1.4700  -22.3220 C   0  0  0  0  0  0  0  0  0  0  0  0
   -7.4196   -2.7538  -21.5851 O   0  0  0  0  0  0  0  0  0  0  0  0
  -10.2960    3.7250  -25.6794 C   0  0  0  0  0  0  0  0  0  0  0  0
  -10.2457    3.9289  -27.1646 C   0  0  0  0  0  0  0  0  0  0  0  0
  -11.2947    4.7586  -27.8437 N   0  0  0  0  0  0  0  0  0  0  0  0
  -12.3940    5.3843  -27.0376 C   0  0  0  0  0  0  0  0  0  0  0  0
  -12.4444    5.1804  -25.5524 C   0  0  0  0  0  0  0  0  0  0  0  0
  -13.5438    5.8061  -24.7462 C   0  0  0  0  0  0  0  0  0  0  0  0
  -13.5941    5.6021  -23.2610 C   0  0  0  0  0  0  0  0  0  0  0  0
  -12.5451    4.7725  -22.5819 C   0  0  0  0  0  0  0  0  0  0  0  0
  -11.4457    4.1467  -23.3880 C   0  0  0  0  0  0  0  0  0  0  0  0
  -11.3954    4.3507  -24.8732 C   0  0  0  0  0  0  0  0  0  0  0  0
   -5.1501   -0.8545  -22.0775 C   0  0  0  0  0  0  0  0  0  0  0  0
   -1.7017    2.5726  -20.0173 C   0  0  0  0  0  0  0  0  0  0  0  0
   -2.8664    1.6403  -20.1733 C   0  0  0  0  0  0  0  0  0  0  0  0
   -3.2157    0.8648  -21.4088 C   0  0  0  0  0  0  0  0  0  0  0  0
   -4.4515    0.0651  -21.1202 C   0  0  0  0  0  0  0  0  0  0  0  0
   -4.8659    0.3463  -19.7062 O   0  0  0  0  0  0  0  0  0  0  0  0
   -3.8862    1.3199  -19.1210 N   0  0  0  0  0  0  0  0  0  0  0  0
 30 31  1  0  0  0
 31 32  1  0  0  0
 32 33  2  0  0  0
 33 29  1  0  0  0
 29  1  1  0  0  0
  1  2  1  0  0  0
  3  2  1  0  0  0
  3  4  1  0  0  0
  4  5  2  0  0  0
  4  6  1  0  0  0
  6 19  1  0  0  0
 19 20  2  0  0  0
 20 21  1  0  0  0
 21 22  2  0  0  0
 22 23  1  0  0  0
 23 24  2  0  0  0
 24 25  1  0  0  0
 25 26  2  0  0  0
 26 27  1  0  0  0
 27 28  2  0  0  0
  6  7  1  0  0  0
  7  8  1  0  0  0
  8  9  1  0  0  0
  3 10  1  0  0  0
 10 11  2  0  0  0
 11 12  1  0  0  0
 12 13  1  0  0  0
 12 14  2  0  0  0
 14 15  1  0  0  0
 15 16  2  0  0  0
 16 17  1  0  0  0
 17 18  2  0  0  0
 33 34  1  0  0  0
 34 35  1  0  0  0
 35 31  2  0  0  0
 17  1  1  0  0  0
  8  3  1  0  0  0
 16 10  1  0  0  0
 28 19  1  0  0  0
 28 23  1  0  0  0
M  END
> <minimizedAffinity>
-8.29551

> <CNNscore>
0.2238276750

> <CNNaffinity>
6.0066852570

> <CNN_VS>
1.3444623947

> <CNNaffinity_variance>
0.1484571844

$$$$



 35 40  0  0  0  0  0  0  0  0999 V2000
  -12.0107    2.4014  -23.6825 N   0  0  0  0  0  0  0  0  0  0  0  0
  -11.9388    0.9051  -23.6056 C   0  0  0  0  0  0  0  0  0  0  0  0
  -10.6070    0.2157  -23.6354 C   0  0  0  0  0  0  0  0  0  0  0  0
   -9.3541   -0.6089  -23.6539 C   0  0  0  0  0  0  0  0  0  0  0  0
   -8.1490   -0.4696  -23.7218 O   0  0  0  0  0  0  0  0  0  0  0  0
   -9.7482   -2.0530  -23.5564 N   0  0  0  0  0  0  0  0  0  0  0  0
  -11.2445   -2.1209  -23.4777 C   0  0  0  0  0  0  0  0  0  0  0  0
  -11.7753   -0.7187  -23.5265 C   0  0  0  0  0  0  0  0  0  0  0  0
  -13.2207   -0.3209  -23.4754 C   0  0  0  0  0  0  0  0  0  0  0  0
   -9.3470    1.0226  -23.7420 C   0  0  0  0  0  0  0  0  0  0  0  0
   -8.0151    0.3332  -23.7717 C   0  0  0  0  0  0  0  0  0  0  0  0
   -6.7552    1.1401  -23.8783 C   0  0  0  0  0  0  0  0  0  0  0  0
   -5.4233    0.4508  -23.9081 F   0  0  0  0  0  0  0  0  0  0  0  0
   -6.8271    2.6364  -23.9552 C   0  0  0  0  0  0  0  0  0  0  0  0
   -8.1589    3.3258  -23.9255 C   0  0  0  0  0  0  0  0  0  0  0  0
   -9.4189    2.5189  -23.8189 C   0  0  0  0  0  0  0  0  0  0  0  0
  -10.7508    3.2083  -23.7891 C   0  0  0  0  0  0  0  0  0  0  0  0
  -10.8227    4.7046  -23.8660 O   0  0  0  0  0  0  0  0  0  0  0  0
   -8.8104   -3.2236  -23.5405 C   0  0  0  0  0  0  0  0  0  0  0  0
   -7.6486   -3.2411  -22.5919 C   0  0  0  0  0  0  0  0  0  0  0  0
   -6.7108   -4.4117  -22.5759 N   0  0  0  0  0  0  0  0  0  0  0  0
   -6.9349   -5.5649  -23.5086 C   0  0  0  0  0  0  0  0  0  0  0  0
   -8.0968   -5.5474  -24.4572 C   0  0  0  0  0  0  0  0  0  0  0  0
   -8.3208   -6.7007  -25.3900 C   0  0  0  0  0  0  0  0  0  0  0  0
   -9.4827   -6.6832  -26.3385 C   0  0  0  0  0  0  0  0  0  0  0  0
  -10.4204   -5.5125  -26.3545 C   0  0  0  0  0  0  0  0  0  0  0  0
  -10.1964   -4.3594  -25.4218 C   0  0  0  0  0  0  0  0  0  0  0  0
   -9.0345   -4.3768  -24.4732 C   0  0  0  0  0  0  0  0  0  0  0  0
  -13.3427    3.0907  -23.6528 C   0  0  0  0  0  0  0  0  0  0  0  0
  -13.5695    6.9297  -27.2710 C   0  0  0  0  0  0  0  0  0  0  0  0
  -13.6103    6.1994  -25.9615 C   0  0  0  0  0  0  0  0  0  0  0  0
  -13.3640    4.7334  -25.7614 C   0  0  0  0  0  0  0  0  0  0  0  0
  -13.5060    4.4348  -24.2983 C   0  0  0  0  0  0  0  0  0  0  0  0
  -13.8402    5.7165  -23.5940 O   0  0  0  0  0  0  0  0  0  0  0  0
  -13.9046    6.8070  -24.6220 N   0  0  0  0  0  0  0  0  0  0  0  0
 30 31  1  0  0  0
 31 32  1  0  0  0
 32 33  2  0  0  0
 33 29  1  0  0  0
 29  1  1  0  0  0
  1  2  1  0  0  0
  3  2  1  0  0  0
  3  4  1  0  0  0
  4  5  2  0  0  0
  4  6  1  0  0  0
  6 19  1  0  0  0
 19 20  2  0  0  0
 20 21  1  0  0  0
 21 22  2  0  0  0
 22 23  1  0  0  0
 23 24  2  0  0  0
 24 25  1  0  0  0
 25 26  2  0  0  0
 26 27  1  0  0  0
 27 28  2  0  0  0
  6  7  1  0  0  0
  7  8  1  0  0  0
  8  9  1  0  0  0
  3 10  1  0  0  0
 10 11  2  0  0  0
 11 12  1  0  0  0
 12 13  1  0  0  0
 12 14  2  0  0  0
 14 15  1  0  0  0
 15 16  2  0  0  0
 16 17  1  0  0  0
 17 18  2  0  0  0
 33 34  1  0  0  0
 34 35  1  0  0  0
 35 31  2  0  0  0
 17  1  1  0  0  0
  8  3  1  0  0  0
 16 10  1  0  0  0
 28 19  1  0  0  0
 28 23  1  0  0  0
M  END
> <minimizedAffinity>
-9.00985

> <CNNscore>
0.2189428955

> <CNNaffinity>
6.2757029533

> <CNN_VS>
1.3740205765

> <CNNaffinity_variance>
0.1363178790

$$$$
