


 38 42  0  0  0  0  0  0  0  0999 V2000
    3.8805   -3.9729   26.2264 N   0  0  0  0  0  0  0  0  0  0  0  0
    5.1958   -4.3148   25.5915 C   0  0  0  0  0  0  0  0  0  0  0  0
    6.1769   -3.2277   25.2668 C   0  0  0  0  0  0  0  0  0  0  0  0
    7.2523   -2.2534   24.8868 C   0  0  0  0  0  0  0  0  0  0  0  0
    7.4799   -1.0602   24.9159 O   0  0  0  0  0  0  0  0  0  0  0  0
    8.3878   -3.0275   24.2856 N   0  0  0  0  0  0  0  0  0  0  0  0
    8.0142   -4.4802   24.2940 C   0  0  0  0  0  0  0  0  0  0  0  0
    6.6479   -4.6039   24.9004 C   0  0  0  0  0  0  0  0  0  0  0  0
    5.8428   -1.7986   25.5770 C   0  0  0  0  0  0  0  0  0  0  0  0
    6.8240   -0.7115   25.2523 C   0  0  0  0  0  0  0  0  0  0  0  0
    6.4899    0.7175   25.5624 C   0  0  0  0  0  0  0  0  0  0  0  0
    7.4710    1.8047   25.2377 Cl  0  0  0  0  0  0  0  0  0  0  0  0
    5.1745    1.0594   26.1973 C   0  0  0  0  0  0  0  0  0  0  0  0
    4.1934   -0.0277   26.5220 C   0  0  0  0  0  0  0  0  0  0  0  0
    4.5275   -1.4567   26.2119 C   0  0  0  0  0  0  0  0  0  0  0  0
    3.5463   -2.5439   26.5366 C   0  0  0  0  0  0  0  0  0  0  0  0
    2.2310   -2.2020   27.1715 O   0  0  0  0  0  0  0  0  0  0  0  0
    9.6715   -2.4502   23.7670 C   0  0  0  0  0  0  0  0  0  0  0  0
    9.7058   -1.7851   22.4229 C   0  0  0  0  0  0  0  0  0  0  0  0
   10.9895   -1.2078   21.9044 N   0  0  0  0  0  0  0  0  0  0  0  0
   12.2388   -1.2956   22.7299 C   0  0  0  0  0  0  0  0  0  0  0  0
   12.2044   -1.9606   24.0740 C   0  0  0  0  0  0  0  0  0  0  0  0
   13.4538   -2.0483   24.8996 C   0  0  0  0  0  0  0  0  0  0  0  0
   13.4193   -2.7133   26.2437 C   0  0  0  0  0  0  0  0  0  0  0  0
   12.1357   -3.2906   26.7623 C   0  0  0  0  0  0  0  0  0  0  0  0
   10.8864   -3.2029   25.9367 C   0  0  0  0  0  0  0  0  0  0  0  0
   10.9208   -2.5379   24.5926 C   0  0  0  0  0  0  0  0  0  0  0  0
    2.8993   -5.0601   26.5511 C   0  0  0  0  0  0  0  0  0  0  0  0
    4.0974   -7.5492   29.4004 C   0  0  0  0  0  0  0  0  0  0  0  0
    4.0172   -6.8353   28.0837 N   0  0  0  0  0  0  0  0  0  0  0  0
    2.9795   -5.7739   27.8679 C   0  0  0  0  0  0  0  0  0  0  0  0
    2.0219   -5.4264   28.9690 O   0  0  0  0  0  0  0  0  0  0  0  0
    4.6457   -7.0634   27.3610 H   0  0  0  0  0  0  0  0  0  0  0  0
    5.8861   -5.8799   25.1046 C   0  0  0  0  0  0  0  0  0  0  0  0
    5.7136   -6.8408   23.9659 O   0  0  0  0  0  0  0  0  0  0  0  0
    4.9154   -6.4401   22.7607 C   0  0  0  0  0  0  0  0  0  0  0  0
    3.4171   -6.4134   22.8283 C   0  0  0  0  0  0  0  0  0  0  0  0
    5.6154   -6.0661   21.4879 C   0  0  0  0  0  0  0  0  0  0  0  0
 29 30  1  0  0  0
 30 31  1  0  0  0
 31 32  2  0  0  0
 31 28  1  0  0  0
 28  1  1  0  0  0
  1  2  1  0  0  0
  3  2  1  0  0  0
  3  4  1  0  0  0
  4  5  2  0  0  0
  4  6  1  0  0  0
  6 18  1  0  0  0
 18 19  2  0  0  0
 19 20  1  0  0  0
 20 21  2  0  0  0
 21 22  1  0  0  0
 22 23  2  0  0  0
 23 24  1  0  0  0
 24 25  2  0  0  0
 25 26  1  0  0  0
 26 27  2  0  0  0
  6  7  1  0  0  0
  7  8  1  0  0  0
  8 34  1  0  0  0
 34 35  1  0  0  0
 35 36  1  0  0  0
 36 37  1  0  0  0
 36 38  1  0  0  0
  3  9  1  0  0  0
  9 10  2  0  0  0
 10 11  1  0  0  0
 11 12  1  0  0  0
 11 13  2  0  0  0
 13 14  1  0  0  0
 14 15  2  0  0  0
 15 16  1  0  0  0
 16 17  2  0  0  0
 16  1  1  0  0  0
  8  3  1  0  0  0
 15  9  1  0  0  0
 27 18  1  0  0  0
 27 22  1  0  0  0
 30 33  1  0  0  0
M  END
> <minimizedAffinity>
-6.90672

> <CNNscore>
0.3836930990

> <CNNaffinity>
6.6274819374

> <CNN_VS>
2.5429191589

> <CNNaffinity_variance>
0.0558280870

$$$$



 38 42  0  0  0  0  0  0  0  0999 V2000
    5.0189    1.3032   21.5626 N   0  0  0  0  0  0  0  0  0  0  0  0
    5.9096    0.1192   21.7971 C   0  0  0  0  0  0  0  0  0  0  0  0
    7.3271    0.3237   22.2429 C   0  0  0  0  0  0  0  0  0  0  0  0
    8.7589    0.3718   22.6876 C   0  0  0  0  0  0  0  0  0  0  0  0
    9.6158    1.1818   22.9808 O   0  0  0  0  0  0  0  0  0  0  0  0
    9.2591   -1.0384   22.7934 N   0  0  0  0  0  0  0  0  0  0  0  0
    8.1364   -1.9581   22.4141 C   0  0  0  0  0  0  0  0  0  0  0  0
    6.9424   -1.1162   22.0739 C   0  0  0  0  0  0  0  0  0  0  0  0
    7.8541    1.7122   22.4541 C   0  0  0  0  0  0  0  0  0  0  0  0
    9.2716    1.9166   22.8998 C   0  0  0  0  0  0  0  0  0  0  0  0
    9.7985    3.3050   23.1111 C   0  0  0  0  0  0  0  0  0  0  0  0
   11.2161    3.5096   23.5568 Cl  0  0  0  0  0  0  0  0  0  0  0  0
    8.9078    4.4890   22.8766 C   0  0  0  0  0  0  0  0  0  0  0  0
    7.4903    4.2845   22.4308 C   0  0  0  0  0  0  0  0  0  0  0  0
    6.9634    2.8961   22.2196 C   0  0  0  0  0  0  0  0  0  0  0  0
    5.5458    2.6916   21.7739 C   0  0  0  0  0  0  0  0  0  0  0  0
    4.6551    3.8755   21.5394 O   0  0  0  0  0  0  0  0  0  0  0  0
   10.6395   -1.4556   23.2061 C   0  0  0  0  0  0  0  0  0  0  0  0
   11.8134   -1.1362   22.3286 C   0  0  0  0  0  0  0  0  0  0  0  0
   13.1938   -1.5534   22.7412 N   0  0  0  0  0  0  0  0  0  0  0  0
   13.4004   -2.2901   24.0314 C   0  0  0  0  0  0  0  0  0  0  0  0
   12.2265   -2.6096   24.9089 C   0  0  0  0  0  0  0  0  0  0  0  0
   12.4331   -3.3463   26.1991 C   0  0  0  0  0  0  0  0  0  0  0  0
   11.2592   -3.6658   27.0766 C   0  0  0  0  0  0  0  0  0  0  0  0
    9.8787   -3.2485   26.6639 C   0  0  0  0  0  0  0  0  0  0  0  0
    9.6722   -2.5118   25.3737 C   0  0  0  0  0  0  0  0  0  0  0  0
   10.8461   -2.1923   24.4962 C   0  0  0  0  0  0  0  0  0  0  0  0
    3.6013    1.0987   21.1169 C   0  0  0  0  0  0  0  0  0  0  0  0
    1.3617    3.9054   19.4268 C   0  0  0  0  0  0  0  0  0  0  0  0
    1.9587    3.0034   20.4661 N   0  0  0  0  0  0  0  0  0  0  0  0
    3.0044    2.0006   20.0776 C   0  0  0  0  0  0  0  0  0  0  0  0
    3.4532    1.8998   18.6498 O   0  0  0  0  0  0  0  0  0  0  0  0
    1.6641    3.0696   21.4031 H   0  0  0  0  0  0  0  0  0  0  0  0
    5.5995   -1.6251   21.6406 C   0  0  0  0  0  0  0  0  0  0  0  0
    5.3928   -3.0923   21.4077 O   0  0  0  0  0  0  0  0  0  0  0  0
    5.6489   -4.0710   22.5151 C   0  0  0  0  0  0  0  0  0  0  0  0
    6.1359   -5.4535   22.1966 C   0  0  0  0  0  0  0  0  0  0  0  0
    5.4180   -3.6673   23.9412 C   0  0  0  0  0  0  0  0  0  0  0  0
 29 30  1  0  0  0
 30 31  1  0  0  0
 31 32  2  0  0  0
 31 28  1  0  0  0
 28  1  1  0  0  0
  1  2  1  0  0  0
  3  2  1  0  0  0
  3  4  1  0  0  0
  4  5  2  0  0  0
  4  6  1  0  0  0
  6 18  1  0  0  0
 18 19  2  0  0  0
 19 20  1  0  0  0
 20 21  2  0  0  0
 21 22  1  0  0  0
 22 23  2  0  0  0
 23 24  1  0  0  0
 24 25  2  0  0  0
 25 26  1  0  0  0
 26 27  2  0  0  0
  6  7  1  0  0  0
  7  8  1  0  0  0
  8 34  1  0  0  0
 34 35  1  0  0  0
 35 36  1  0  0  0
 36 37  1  0  0  0
 36 38  1  0  0  0
  3  9  1  0  0  0
  9 10  2  0  0  0
 10 11  1  0  0  0
 11 12  1  0  0  0
 11 13  2  0  0  0
 13 14  1  0  0  0
 14 15  2  0  0  0
 15 16  1  0  0  0
 16 17  2  0  0  0
 16  1  1  0  0  0
  8  3  1  0  0  0
 15  9  1  0  0  0
 27 18  1  0  0  0
 27 22  1  0  0  0
 30 33  1  0  0  0
M  END
> <minimizedAffinity>
-7.43668

> <CNNscore>
0.3525165915

> <CNNaffinity>
6.7353157997

> <CNN_VS>
2.3743104935

> <CNNaffinity_variance>
0.0853147432

$$$$



 38 42  0  0  0  0  0  0  0  0999 V2000
   10.4760    0.5513   23.6453 N   0  0  0  0  0  0  0  0  0  0  0  0
    9.0813    0.1601   24.0349 C   0  0  0  0  0  0  0  0  0  0  0  0
    8.8572   -1.0125   24.9430 C   0  0  0  0  0  0  0  0  0  0  0  0
    8.4795   -2.1552   25.8383 C   0  0  0  0  0  0  0  0  0  0  0  0
    8.9999   -3.0448   26.4819 O   0  0  0  0  0  0  0  0  0  0  0  0
    6.9842   -2.1786   25.9544 N   0  0  0  0  0  0  0  0  0  0  0  0
    6.4377   -1.0503   25.1307 C   0  0  0  0  0  0  0  0  0  0  0  0
    7.5953   -0.3297   24.5057 C   0  0  0  0  0  0  0  0  0  0  0  0
   10.0279   -1.7941   25.4615 C   0  0  0  0  0  0  0  0  0  0  0  0
    9.8038   -2.9667   26.3696 C   0  0  0  0  0  0  0  0  0  0  0  0
   10.9744   -3.7482   26.8880 C   0  0  0  0  0  0  0  0  0  0  0  0
   10.7504   -4.9209   27.7962 Cl  0  0  0  0  0  0  0  0  0  0  0  0
   12.3691   -3.3571   26.4984 C   0  0  0  0  0  0  0  0  0  0  0  0
   12.5932   -2.1844   25.5903 C   0  0  0  0  0  0  0  0  0  0  0  0
   11.4226   -1.4029   25.0719 C   0  0  0  0  0  0  0  0  0  0  0  0
   11.6466   -0.2302   24.1637 C   0  0  0  0  0  0  0  0  0  0  0  0
   13.0413    0.1609   23.7741 O   0  0  0  0  0  0  0  0  0  0  0  0
    6.1771   -3.1582   26.7537 C   0  0  0  0  0  0  0  0  0  0  0  0
    6.0709   -3.0047   28.2421 C   0  0  0  0  0  0  0  0  0  0  0  0
    5.2638   -3.9843   29.0414 N   0  0  0  0  0  0  0  0  0  0  0  0
    4.5630   -5.1174   28.3524 C   0  0  0  0  0  0  0  0  0  0  0  0
    4.6692   -5.2710   26.8640 C   0  0  0  0  0  0  0  0  0  0  0  0
    3.9683   -6.4042   26.1750 C   0  0  0  0  0  0  0  0  0  0  0  0
    4.0746   -6.5576   24.6867 C   0  0  0  0  0  0  0  0  0  0  0  0
    4.8817   -5.5780   23.8873 C   0  0  0  0  0  0  0  0  0  0  0  0
    5.5825   -4.4449   24.5763 C   0  0  0  0  0  0  0  0  0  0  0  0
    5.4763   -4.2913   26.0647 C   0  0  0  0  0  0  0  0  0  0  0  0
   10.7000    1.7240   22.7371 C   0  0  0  0  0  0  0  0  0  0  0  0
    8.2032    4.7649   23.2556 C   0  0  0  0  0  0  0  0  0  0  0  0
    9.3105    3.7827   23.4992 N   0  0  0  0  0  0  0  0  0  0  0  0
    9.5928    2.7062   22.4935 C   0  0  0  0  0  0  0  0  0  0  0  0
    8.7679    2.6118   21.2442 O   0  0  0  0  0  0  0  0  0  0  0  0
    9.8519    3.8446   24.3191 H   0  0  0  0  0  0  0  0  0  0  0  0
    7.5065    0.8642   23.6019 C   0  0  0  0  0  0  0  0  0  0  0  0
    6.4372    0.9325   22.5522 O   0  0  0  0  0  0  0  0  0  0  0  0
    6.3936   -0.0928   21.4582 C   0  0  0  0  0  0  0  0  0  0  0  0
    7.6365   -0.4155   20.6828 C   0  0  0  0  0  0  0  0  0  0  0  0
    5.1072   -0.7953   21.1395 C   0  0  0  0  0  0  0  0  0  0  0  0
 29 30  1  0  0  0
 30 31  1  0  0  0
 31 32  2  0  0  0
 31 28  1  0  0  0
 28  1  1  0  0  0
  1  2  1  0  0  0
  3  2  1  0  0  0
  3  4  1  0  0  0
  4  5  2  0  0  0
  4  6  1  0  0  0
  6 18  1  0  0  0
 18 19  2  0  0  0
 19 20  1  0  0  0
 20 21  2  0  0  0
 21 22  1  0  0  0
 22 23  2  0  0  0
 23 24  1  0  0  0
 24 25  2  0  0  0
 25 26  1  0  0  0
 26 27  2  0  0  0
  6  7  1  0  0  0
  7  8  1  0  0  0
  8 34  1  0  0  0
 34 35  1  0  0  0
 35 36  1  0  0  0
 36 37  1  0  0  0
 36 38  1  0  0  0
  3  9  1  0  0  0
  9 10  2  0  0  0
 10 11  1  0  0  0
 11 12  1  0  0  0
 11 13  2  0  0  0
 13 14  1  0  0  0
 14 15  2  0  0  0
 15 16  1  0  0  0
 16 17  2  0  0  0
 16  1  1  0  0  0
  8  3  1  0  0  0
 15  9  1  0  0  0
 27 18  1  0  0  0
 27 22  1  0  0  0
 30 33  1  0  0  0
M  END
> <minimizedAffinity>
-7.80659

> <CNNscore>
0.3082072139

> <CNNaffinity>
6.5604705811

> <CNN_VS>
2.0219843388

> <CNNaffinity_variance>
0.2913165390

$$$$



 38 42  0  0  0  0  0  0  0  0999 V2000
    9.6091    0.9245   23.7691 N   0  0  0  0  0  0  0  0  0  0  0  0
    9.2965   -0.4339   24.3232 C   0  0  0  0  0  0  0  0  0  0  0  0
    7.8822   -0.7961   24.6675 C   0  0  0  0  0  0  0  0  0  0  0  0
    6.5233   -1.2985   25.0560 C   0  0  0  0  0  0  0  0  0  0  0  0
    5.3672   -0.9260   25.0876 O   0  0  0  0  0  0  0  0  0  0  0  0
    6.6748   -2.7036   25.5589 N   0  0  0  0  0  0  0  0  0  0  0  0
    8.1274   -3.0696   25.4812 C   0  0  0  0  0  0  0  0  0  0  0  0
    8.8736   -1.8907   24.9302 C   0  0  0  0  0  0  0  0  0  0  0  0
    6.7805    0.2001   24.4578 C   0  0  0  0  0  0  0  0  0  0  0  0
    5.3663   -0.1621   24.8022 C   0  0  0  0  0  0  0  0  0  0  0  0
    4.2647    0.8341   24.5925 C   0  0  0  0  0  0  0  0  0  0  0  0
    2.8503    0.4718   24.9368 Cl  0  0  0  0  0  0  0  0  0  0  0  0
    4.5773    2.1925   24.0385 C   0  0  0  0  0  0  0  0  0  0  0  0
    5.9916    2.5547   23.6942 C   0  0  0  0  0  0  0  0  0  0  0  0
    7.0932    1.5585   23.9038 C   0  0  0  0  0  0  0  0  0  0  0  0
    8.5075    1.9207   23.5595 C   0  0  0  0  0  0  0  0  0  0  0  0
    8.8202    3.2791   23.0055 O   0  0  0  0  0  0  0  0  0  0  0  0
    5.5681   -3.5874   26.0528 C   0  0  0  0  0  0  0  0  0  0  0  0
    4.8677   -4.5138   25.1035 C   0  0  0  0  0  0  0  0  0  0  0  0
    3.7610   -5.3977   25.5973 N   0  0  0  0  0  0  0  0  0  0  0  0
    3.3545   -5.3550   27.0406 C   0  0  0  0  0  0  0  0  0  0  0  0
    4.0549   -4.4285   27.9899 C   0  0  0  0  0  0  0  0  0  0  0  0
    3.6484   -4.3859   29.4332 C   0  0  0  0  0  0  0  0  0  0  0  0
    4.3487   -3.4594   30.3825 C   0  0  0  0  0  0  0  0  0  0  0  0
    5.4555   -2.5756   29.8886 C   0  0  0  0  0  0  0  0  0  0  0  0
    5.8619   -2.6182   28.4454 C   0  0  0  0  0  0  0  0  0  0  0  0
    5.1616   -3.5447   27.4960 C   0  0  0  0  0  0  0  0  0  0  0  0
   11.0235    1.2867   23.4248 C   0  0  0  0  0  0  0  0  0  0  0  0
   12.9730   -1.5804   21.4937 C   0  0  0  0  0  0  0  0  0  0  0  0
   11.9759   -0.5022   21.7992 N   0  0  0  0  0  0  0  0  0  0  0  0
   12.0206    0.2086   23.1193 C   0  0  0  0  0  0  0  0  0  0  0  0
   13.0626   -0.1587   24.1340 O   0  0  0  0  0  0  0  0  0  0  0  0
   11.2920   -0.2612   21.1333 H   0  0  0  0  0  0  0  0  0  0  0  0
   10.3517   -1.8191   24.6851 C   0  0  0  0  0  0  0  0  0  0  0  0
   11.1985   -3.0471   24.8427 O   0  0  0  0  0  0  0  0  0  0  0  0
   11.8041   -3.3746   26.1754 C   0  0  0  0  0  0  0  0  0  0  0  0
   13.1583   -2.8397   26.5357 C   0  0  0  0  0  0  0  0  0  0  0  0
   11.0554   -4.2370   27.1478 C   0  0  0  0  0  0  0  0  0  0  0  0
 29 30  1  0  0  0
 30 31  1  0  0  0
 31 32  2  0  0  0
 31 28  1  0  0  0
 28  1  1  0  0  0
  1  2  1  0  0  0
  3  2  1  0  0  0
  3  4  1  0  0  0
  4  5  2  0  0  0
  4  6  1  0  0  0
  6 18  1  0  0  0
 18 19  2  0  0  0
 19 20  1  0  0  0
 20 21  2  0  0  0
 21 22  1  0  0  0
 22 23  2  0  0  0
 23 24  1  0  0  0
 24 25  2  0  0  0
 25 26  1  0  0  0
 26 27  2  0  0  0
  6  7  1  0  0  0
  7  8  1  0  0  0
  8 34  1  0  0  0
 34 35  1  0  0  0
 35 36  1  0  0  0
 36 37  1  0  0  0
 36 38  1  0  0  0
  3  9  1  0  0  0
  9 10  2  0  0  0
 10 11  1  0  0  0
 11 12  1  0  0  0
 11 13  2  0  0  0
 13 14  1  0  0  0
 14 15  2  0  0  0
 15 16  1  0  0  0
 16 17  2  0  0  0
 16  1  1  0  0  0
  8  3  1  0  0  0
 15  9  1  0  0  0
 27 18  1  0  0  0
 27 22  1  0  0  0
 30 33  1  0  0  0
M  END
> <minimizedAffinity>
-6.63807

> <CNNscore>
0.2804988325

> <CNNaffinity>
6.5803909302

> <CNN_VS>
1.8457919359

> <CNNaffinity_variance>
0.0657819808

$$$$



 38 42  0  0  0  0  0  0  0  0999 V2000
   10.8598    1.5646   22.6785 N   0  0  0  0  0  0  0  0  0  0  0  0
    9.4645    1.1182   23.0011 C   0  0  0  0  0  0  0  0  0  0  0  0
    9.2438   -0.0933   23.8574 C   0  0  0  0  0  0  0  0  0  0  0  0
    8.8692   -1.2790   24.6964 C   0  0  0  0  0  0  0  0  0  0  0  0
    9.3929   -2.1760   25.3267 O   0  0  0  0  0  0  0  0  0  0  0  0
    7.3720   -1.3508   24.7552 N   0  0  0  0  0  0  0  0  0  0  0  0
    6.8214   -0.2095   23.9526 C   0  0  0  0  0  0  0  0  0  0  0  0
    7.9782    0.5677   23.3977 C   0  0  0  0  0  0  0  0  0  0  0  0
   10.4183   -0.8586   24.3913 C   0  0  0  0  0  0  0  0  0  0  0  0
   10.1976   -2.0701   25.2476 C   0  0  0  0  0  0  0  0  0  0  0  0
   11.3721   -2.8353   25.7814 C   0  0  0  0  0  0  0  0  0  0  0  0
   11.1514   -4.0469   26.6378 Cl  0  0  0  0  0  0  0  0  0  0  0  0
   12.7674   -2.3890   25.4588 C   0  0  0  0  0  0  0  0  0  0  0  0
   12.9881   -1.1774   24.6025 C   0  0  0  0  0  0  0  0  0  0  0  0
   11.8136   -0.4122   24.0687 C   0  0  0  0  0  0  0  0  0  0  0  0
   12.0343    0.7994   23.2123 C   0  0  0  0  0  0  0  0  0  0  0  0
   13.4295    1.2457   22.8897 O   0  0  0  0  0  0  0  0  0  0  0  0
    6.5670   -2.3827   25.4879 C   0  0  0  0  0  0  0  0  0  0  0  0
    5.9991   -2.0695   26.8405 C   0  0  0  0  0  0  0  0  0  0  0  0
    5.1941   -3.1015   27.5733 N   0  0  0  0  0  0  0  0  0  0  0  0
    4.9568   -4.4466   26.9535 C   0  0  0  0  0  0  0  0  0  0  0  0
    5.5246   -4.7598   25.6009 C   0  0  0  0  0  0  0  0  0  0  0  0
    5.2874   -6.1051   24.9810 C   0  0  0  0  0  0  0  0  0  0  0  0
    5.8552   -6.4182   23.6284 C   0  0  0  0  0  0  0  0  0  0  0  0
    6.6603   -5.3863   22.8957 C   0  0  0  0  0  0  0  0  0  0  0  0
    6.8975   -4.0411   23.5155 C   0  0  0  0  0  0  0  0  0  0  0  0
    6.3297   -3.7279   24.8681 C   0  0  0  0  0  0  0  0  0  0  0  0
   11.0805    2.7762   21.8221 C   0  0  0  0  0  0  0  0  0  0  0  0
   10.5374    6.3327   23.4971 C   0  0  0  0  0  0  0  0  0  0  0  0
   10.2452    5.0068   22.8596 N   0  0  0  0  0  0  0  0  0  0  0  0
   11.3728    4.1021   22.4596 C   0  0  0  0  0  0  0  0  0  0  0  0
   12.7927    4.5233   22.6972 O   0  0  0  0  0  0  0  0  0  0  0  0
    9.3132    4.7304   22.7036 H   0  0  0  0  0  0  0  0  0  0  0  0
    7.8856    1.7910   22.5347 C   0  0  0  0  0  0  0  0  0  0  0  0
    7.7246    1.6511   21.0500 O   0  0  0  0  0  0  0  0  0  0  0  0
    6.4783    1.0362   20.4854 C   0  0  0  0  0  0  0  0  0  0  0  0
    5.1324    1.5067   20.9511 C   0  0  0  0  0  0  0  0  0  0  0  0
    6.5781   -0.0493   19.4550 C   0  0  0  0  0  0  0  0  0  0  0  0
 29 30  1  0  0  0
 30 31  1  0  0  0
 31 32  2  0  0  0
 31 28  1  0  0  0
 28  1  1  0  0  0
  1  2  1  0  0  0
  3  2  1  0  0  0
  3  4  1  0  0  0
  4  5  2  0  0  0
  4  6  1  0  0  0
  6 18  1  0  0  0
 18 19  2  0  0  0
 19 20  1  0  0  0
 20 21  2  0  0  0
 21 22  1  0  0  0
 22 23  2  0  0  0
 23 24  1  0  0  0
 24 25  2  0  0  0
 25 26  1  0  0  0
 26 27  2  0  0  0
  6  7  1  0  0  0
  7  8  1  0  0  0
  8 34  1  0  0  0
 34 35  1  0  0  0
 35 36  1  0  0  0
 36 37  1  0  0  0
 36 38  1  0  0  0
  3  9  1  0  0  0
  9 10  2  0  0  0
 10 11  1  0  0  0
 11 12  1  0  0  0
 11 13  2  0  0  0
 13 14  1  0  0  0
 14 15  2  0  0  0
 15 16  1  0  0  0
 16 17  2  0  0  0
 16  1  1  0  0  0
  8  3  1  0  0  0
 15  9  1  0  0  0
 27 18  1  0  0  0
 27 22  1  0  0  0
 30 33  1  0  0  0
M  END
> <minimizedAffinity>
-8.30830

> <CNNscore>
0.2351592481

> <CNNaffinity>
6.7367048264

> <CNN_VS>
1.5841984749

> <CNNaffinity_variance>
0.2785574794

$$$$



 38 42  0  0  0  0  0  0  0  0999 V2000
    6.7129    1.7286   21.3912 N   0  0  0  0  0  0  0  0  0  0  0  0
    8.0260    1.6241   22.1089 C   0  0  0  0  0  0  0  0  0  0  0  0
    8.4727    0.3056   22.6673 C   0  0  0  0  0  0  0  0  0  0  0  0
    9.0485   -0.9387   23.2755 C   0  0  0  0  0  0  0  0  0  0  0  0
    8.7787   -2.1144   23.4213 O   0  0  0  0  0  0  0  0  0  0  0  0
   10.3722   -0.5862   23.8869 N   0  0  0  0  0  0  0  0  0  0  0  0
   10.6144    0.8761   23.6564 C   0  0  0  0  0  0  0  0  0  0  0  0
    9.4405    1.4272   22.9027 C   0  0  0  0  0  0  0  0  0  0  0  0
    7.6064   -0.9086   22.5080 C   0  0  0  0  0  0  0  0  0  0  0  0
    8.0531   -2.2271   23.0664 C   0  0  0  0  0  0  0  0  0  0  0  0
    7.1868   -3.4412   22.9072 C   0  0  0  0  0  0  0  0  0  0  0  0
    7.6336   -4.7598   23.4656 Cl  0  0  0  0  0  0  0  0  0  0  0  0
    5.8738   -3.3368   22.1896 C   0  0  0  0  0  0  0  0  0  0  0  0
    5.4271   -2.0183   21.6312 C   0  0  0  0  0  0  0  0  0  0  0  0
    6.2933   -0.8042   21.7904 C   0  0  0  0  0  0  0  0  0  0  0  0
    5.8466    0.5144   21.2320 C   0  0  0  0  0  0  0  0  0  0  0  0
    4.5336    0.6188   20.5143 O   0  0  0  0  0  0  0  0  0  0  0  0
   11.2921   -1.5302   24.6029 C   0  0  0  0  0  0  0  0  0  0  0  0
   12.7389   -1.6068   24.2144 C   0  0  0  0  0  0  0  0  0  0  0  0
   13.6587   -2.5508   24.9305 N   0  0  0  0  0  0  0  0  0  0  0  0
   13.1318   -3.4181   26.0350 C   0  0  0  0  0  0  0  0  0  0  0  0
   11.6850   -3.3415   26.4235 C   0  0  0  0  0  0  0  0  0  0  0  0
   11.1580   -4.2089   27.5281 C   0  0  0  0  0  0  0  0  0  0  0  0
    9.7112   -4.1322   27.9165 C   0  0  0  0  0  0  0  0  0  0  0  0
    8.7913   -3.1883   27.2004 C   0  0  0  0  0  0  0  0  0  0  0  0
    9.3183   -2.3209   26.0959 C   0  0  0  0  0  0  0  0  0  0  0  0
   10.7651   -2.3975   25.7074 C   0  0  0  0  0  0  0  0  0  0  0  0
    6.2662    3.0472   20.8328 C   0  0  0  0  0  0  0  0  0  0  0  0
    4.5801    6.4154   22.0826 C   0  0  0  0  0  0  0  0  0  0  0  0
    5.2360    5.4057   21.1880 N   0  0  0  0  0  0  0  0  0  0  0  0
    5.6103    4.0570   21.7273 C   0  0  0  0  0  0  0  0  0  0  0  0
    5.3287    3.7180   23.1612 O   0  0  0  0  0  0  0  0  0  0  0  0
    5.4208    5.6281   20.2470 H   0  0  0  0  0  0  0  0  0  0  0  0
    9.2651    2.8502   22.4617 C   0  0  0  0  0  0  0  0  0  0  0  0
    9.8823    3.9630   23.2558 O   0  0  0  0  0  0  0  0  0  0  0  0
   11.0657    4.7064   22.7111 C   0  0  0  0  0  0  0  0  0  0  0  0
   10.9924    6.1915   22.5134 C   0  0  0  0  0  0  0  0  0  0  0  0
   12.3225    3.9647   22.3642 C   0  0  0  0  0  0  0  0  0  0  0  0
 29 30  1  0  0  0
 30 31  1  0  0  0
 31 32  2  0  0  0
 31 28  1  0  0  0
 28  1  1  0  0  0
  1  2  1  0  0  0
  3  2  1  0  0  0
  3  4  1  0  0  0
  4  5  2  0  0  0
  4  6  1  0  0  0
  6 18  1  0  0  0
 18 19  2  0  0  0
 19 20  1  0  0  0
 20 21  2  0  0  0
 21 22  1  0  0  0
 22 23  2  0  0  0
 23 24  1  0  0  0
 24 25  2  0  0  0
 25 26  1  0  0  0
 26 27  2  0  0  0
  6  7  1  0  0  0
  7  8  1  0  0  0
  8 34  1  0  0  0
 34 35  1  0  0  0
 35 36  1  0  0  0
 36 37  1  0  0  0
 36 38  1  0  0  0
  3  9  1  0  0  0
  9 10  2  0  0  0
 10 11  1  0  0  0
 11 12  1  0  0  0
 11 13  2  0  0  0
 13 14  1  0  0  0
 14 15  2  0  0  0
 15 16  1  0  0  0
 16 17  2  0  0  0
 16  1  1  0  0  0
  8  3  1  0  0  0
 15  9  1  0  0  0
 27 18  1  0  0  0
 27 22  1  0  0  0
 30 33  1  0  0  0
M  END
> <minimizedAffinity>
-7.53506

> <CNNscore>
0.2341486961

> <CNNaffinity>
6.6559677124

> <CNN_VS>
1.5584861040

> <CNNaffinity_variance>
0.0689769238

$$$$



 38 42  0  0  0  0  0  0  0  0999 V2000
    5.5923    3.7228   22.6991 N   0  0  0  0  0  0  0  0  0  0  0  0
    6.4096    2.4687   22.6025 C   0  0  0  0  0  0  0  0  0  0  0  0
    6.8024    1.7317   23.8485 C   0  0  0  0  0  0  0  0  0  0  0  0
    7.2680    0.8918   25.0008 C   0  0  0  0  0  0  0  0  0  0  0  0
    7.2070    0.8600   26.2139 O   0  0  0  0  0  0  0  0  0  0  0  0
    8.0511   -0.2616   24.4471 N   0  0  0  0  0  0  0  0  0  0  0  0
    8.0695   -0.1345   22.9526 C   0  0  0  0  0  0  0  0  0  0  0  0
    7.2978    1.0974   22.5827 C   0  0  0  0  0  0  0  0  0  0  0  0
    6.3778    2.2487   25.1911 C   0  0  0  0  0  0  0  0  0  0  0  0
    6.7706    1.5117   26.4370 C   0  0  0  0  0  0  0  0  0  0  0  0
    6.3460    2.0286   27.7795 C   0  0  0  0  0  0  0  0  0  0  0  0
    6.7388    1.2916   29.0256 Cl  0  0  0  0  0  0  0  0  0  0  0  0
    5.5286    3.2827   27.8761 C   0  0  0  0  0  0  0  0  0  0  0  0
    5.1358    4.0197   26.6301 C   0  0  0  0  0  0  0  0  0  0  0  0
    5.5604    3.5027   25.2876 C   0  0  0  0  0  0  0  0  0  0  0  0
    5.1677    4.2397   24.0416 C   0  0  0  0  0  0  0  0  0  0  0  0
    4.3503    5.4938   24.1381 O   0  0  0  0  0  0  0  0  0  0  0  0
    8.7015   -1.3508   25.2475 C   0  0  0  0  0  0  0  0  0  0  0  0
    7.8570   -2.3220   26.0178 C   0  0  0  0  0  0  0  0  0  0  0  0
    8.5074   -3.4112   26.8182 N   0  0  0  0  0  0  0  0  0  0  0  0
   10.0025   -3.5291   26.8482 C   0  0  0  0  0  0  0  0  0  0  0  0
   10.8470   -2.5579   26.0779 C   0  0  0  0  0  0  0  0  0  0  0  0
   12.3422   -2.6758   26.1079 C   0  0  0  0  0  0  0  0  0  0  0  0
   13.1867   -1.7045   25.3376 C   0  0  0  0  0  0  0  0  0  0  0  0
   12.5362   -0.6153   24.5372 C   0  0  0  0  0  0  0  0  0  0  0  0
   11.0412   -0.4974   24.5072 C   0  0  0  0  0  0  0  0  0  0  0  0
   10.1966   -1.4687   25.2775 C   0  0  0  0  0  0  0  0  0  0  0  0
    5.1995    4.4598   21.4530 C   0  0  0  0  0  0  0  0  0  0  0  0
    1.4826    4.6956   20.0822 C   0  0  0  0  0  0  0  0  0  0  0  0
    2.7567    5.0473   20.7914 N   0  0  0  0  0  0  0  0  0  0  0  0
    3.9254    4.1082   20.7438 C   0  0  0  0  0  0  0  0  0  0  0  0
    3.8199    2.8174   19.9869 O   0  0  0  0  0  0  0  0  0  0  0  0
    2.8259    5.8944   21.2882 H   0  0  0  0  0  0  0  0  0  0  0  0
    7.0627    1.6057   21.1911 C   0  0  0  0  0  0  0  0  0  0  0  0
    7.2155    0.6819   20.0194 O   0  0  0  0  0  0  0  0  0  0  0  0
    6.0199   -0.0405   19.4728 C   0  0  0  0  0  0  0  0  0  0  0  0
    5.4588    0.3425   18.1355 C   0  0  0  0  0  0  0  0  0  0  0  0
    5.3853   -1.1459   20.2636 C   0  0  0  0  0  0  0  0  0  0  0  0
 29 30  1  0  0  0
 30 31  1  0  0  0
 31 32  2  0  0  0
 31 28  1  0  0  0
 28  1  1  0  0  0
  1  2  1  0  0  0
  3  2  1  0  0  0
  3  4  1  0  0  0
  4  5  2  0  0  0
  4  6  1  0  0  0
  6 18  1  0  0  0
 18 19  2  0  0  0
 19 20  1  0  0  0
 20 21  2  0  0  0
 21 22  1  0  0  0
 22 23  2  0  0  0
 23 24  1  0  0  0
 24 25  2  0  0  0
 25 26  1  0  0  0
 26 27  2  0  0  0
  6  7  1  0  0  0
  7  8  1  0  0  0
  8 34  1  0  0  0
 34 35  1  0  0  0
 35 36  1  0  0  0
 36 37  1  0  0  0
 36 38  1  0  0  0
  3  9  1  0  0  0
  9 10  2  0  0  0
 10 11  1  0  0  0
 11 12  1  0  0  0
 11 13  2  0  0  0
 13 14  1  0  0  0
 14 15  2  0  0  0
 15 16  1  0  0  0
 16 17  2  0  0  0
 16  1  1  0  0  0
  8  3  1  0  0  0
 15  9  1  0  0  0
 27 18  1  0  0  0
 27 22  1  0  0  0
 30 33  1  0  0  0
M  END
> <minimizedAffinity>
-7.50521

> <CNNscore>
0.2244093120

> <CNNaffinity>
6.1480832100

> <CNN_VS>
1.3796870708

> <CNNaffinity_variance>
0.0797668546

$$$$



 38 42  0  0  0  0  0  0  0  0999 V2000
    4.6848    2.5731   22.5081 N   0  0  0  0  0  0  0  0  0  0  0  0
    5.8019    1.6026   22.2627 C   0  0  0  0  0  0  0  0  0  0  0  0
    6.2112    0.6422   23.3398 C   0  0  0  0  0  0  0  0  0  0  0  0
    6.7285   -0.3721   24.3163 C   0  0  0  0  0  0  0  0  0  0  0  0
    6.5262   -0.7606   25.4496 O   0  0  0  0  0  0  0  0  0  0  0  0
    7.8442   -1.1256   23.6548 N   0  0  0  0  0  0  0  0  0  0  0  0
    8.0164   -0.5769   22.2694 C   0  0  0  0  0  0  0  0  0  0  0  0
    7.0072    0.5156   22.0747 C   0  0  0  0  0  0  0  0  0  0  0  0
    5.5035    0.6523   24.6623 C   0  0  0  0  0  0  0  0  0  0  0  0
    5.9129   -0.3081   25.7394 C   0  0  0  0  0  0  0  0  0  0  0  0
    5.2051   -0.2979   27.0618 C   0  0  0  0  0  0  0  0  0  0  0  0
    5.6145   -1.2583   28.1389 Cl  0  0  0  0  0  0  0  0  0  0  0  0
    4.0880    0.6726   27.3072 C   0  0  0  0  0  0  0  0  0  0  0  0
    3.6787    1.6329   26.2302 C   0  0  0  0  0  0  0  0  0  0  0  0
    4.3864    1.6228   24.9077 C   0  0  0  0  0  0  0  0  0  0  0  0
    3.9770    2.5832   23.8306 C   0  0  0  0  0  0  0  0  0  0  0  0
    2.8599    3.5537   24.0760 O   0  0  0  0  0  0  0  0  0  0  0  0
    8.6466   -2.2332   24.2706 C   0  0  0  0  0  0  0  0  0  0  0  0
    8.0186   -3.5758   24.5011 C   0  0  0  0  0  0  0  0  0  0  0  0
    8.8211   -4.6834   25.1169 N   0  0  0  0  0  0  0  0  0  0  0  0
   10.2516   -4.4484   25.5021 C   0  0  0  0  0  0  0  0  0  0  0  0
   10.8796   -3.1058   25.2716 C   0  0  0  0  0  0  0  0  0  0  0  0
   12.3102   -2.8709   25.6570 C   0  0  0  0  0  0  0  0  0  0  0  0
   12.9381   -1.5283   25.4264 C   0  0  0  0  0  0  0  0  0  0  0  0
   12.1356   -0.4207   24.8106 C   0  0  0  0  0  0  0  0  0  0  0  0
   10.7051   -0.6556   24.4254 C   0  0  0  0  0  0  0  0  0  0  0  0
   10.0771   -1.9982   24.6559 C   0  0  0  0  0  0  0  0  0  0  0  0
    4.2754    3.5335   21.4310 C   0  0  0  0  0  0  0  0  0  0  0  0
    6.3842    6.8809   21.1187 C   0  0  0  0  0  0  0  0  0  0  0  0
    5.9977    5.4349   21.0207 N   0  0  0  0  0  0  0  0  0  0  0  0
    4.6620    4.9795   21.5290 C   0  0  0  0  0  0  0  0  0  0  0  0
    3.7127    5.9702   22.1353 O   0  0  0  0  0  0  0  0  0  0  0  0
    6.6207    4.7847   20.6227 H   0  0  0  0  0  0  0  0  0  0  0  0
    6.8259    1.3373   20.8329 C   0  0  0  0  0  0  0  0  0  0  0  0
    6.9572    0.6960   19.4834 O   0  0  0  0  0  0  0  0  0  0  0  0
    5.7820   -0.0041   18.8680 C   0  0  0  0  0  0  0  0  0  0  0  0
    5.3460   -1.3401   19.3924 C   0  0  0  0  0  0  0  0  0  0  0  0
    5.0427    0.6319   17.7283 C   0  0  0  0  0  0  0  0  0  0  0  0
 29 30  1  0  0  0
 30 31  1  0  0  0
 31 32  2  0  0  0
 31 28  1  0  0  0
 28  1  1  0  0  0
  1  2  1  0  0  0
  3  2  1  0  0  0
  3  4  1  0  0  0
  4  5  2  0  0  0
  4  6  1  0  0  0
  6 18  1  0  0  0
 18 19  2  0  0  0
 19 20  1  0  0  0
 20 21  2  0  0  0
 21 22  1  0  0  0
 22 23  2  0  0  0
 23 24  1  0  0  0
 24 25  2  0  0  0
 25 26  1  0  0  0
 26 27  2  0  0  0
  6  7  1  0  0  0
  7  8  1  0  0  0
  8 34  1  0  0  0
 34 35  1  0  0  0
 35 36  1  0  0  0
 36 37  1  0  0  0
 36 38  1  0  0  0
  3  9  1  0  0  0
  9 10  2  0  0  0
 10 11  1  0  0  0
 11 12  1  0  0  0
 11 13  2  0  0  0
 13 14  1  0  0  0
 14 15  2  0  0  0
 15 16  1  0  0  0
 16 17  2  0  0  0
 16  1  1  0  0  0
  8  3  1  0  0  0
 15  9  1  0  0  0
 27 18  1  0  0  0
 27 22  1  0  0  0
 30 33  1  0  0  0
M  END
> <minimizedAffinity>
-7.35590

> <CNNscore>
0.2131608576

> <CNNaffinity>
6.3323826790

> <CNN_VS>
1.3498160839

> <CNNaffinity_variance>
0.0581869371

$$$$



 38 42  0  0  0  0  0  0  0  0999 V2000
    6.7607    4.1503   24.1884 N   0  0  0  0  0  0  0  0  0  0  0  0
    7.6589    3.0038   23.8296 C   0  0  0  0  0  0  0  0  0  0  0  0
    7.5894    1.7242   24.6091 C   0  0  0  0  0  0  0  0  0  0  0  0
    7.6329    0.3904   25.2940 C   0  0  0  0  0  0  0  0  0  0  0  0
    7.0983   -0.2040   26.2091 O   0  0  0  0  0  0  0  0  0  0  0  0
    8.6721   -0.4480   24.6105 N   0  0  0  0  0  0  0  0  0  0  0  0
    9.2709    0.3676   23.5032 C   0  0  0  0  0  0  0  0  0  0  0  0
    8.6017    1.7101   23.5023 C   0  0  0  0  0  0  0  0  0  0  0  0
    6.6217    1.5910   25.7475 C   0  0  0  0  0  0  0  0  0  0  0  0
    6.5522    0.3114   26.5271 C   0  0  0  0  0  0  0  0  0  0  0  0
    5.5846    0.1784   27.6654 C   0  0  0  0  0  0  0  0  0  0  0  0
    5.5151   -1.1013   28.4450 Cl  0  0  0  0  0  0  0  0  0  0  0  0
    4.6865    1.3249   28.0243 C   0  0  0  0  0  0  0  0  0  0  0  0
    4.7559    2.6045   27.2448 C   0  0  0  0  0  0  0  0  0  0  0  0
    5.7236    2.7376   26.1064 C   0  0  0  0  0  0  0  0  0  0  0  0
    5.7931    4.0173   25.3268 C   0  0  0  0  0  0  0  0  0  0  0  0
    4.8949    5.1638   25.6856 O   0  0  0  0  0  0  0  0  0  0  0  0
    9.0468   -1.8550   24.9711 C   0  0  0  0  0  0  0  0  0  0  0  0
    8.0304   -2.9529   24.8631 C   0  0  0  0  0  0  0  0  0  0  0  0
    8.4050   -4.3599   25.2236 N   0  0  0  0  0  0  0  0  0  0  0  0
    9.7960   -4.6690   25.6923 C   0  0  0  0  0  0  0  0  0  0  0  0
   10.8124   -3.5711   25.8003 C   0  0  0  0  0  0  0  0  0  0  0  0
   12.2034   -3.8802   26.2690 C   0  0  0  0  0  0  0  0  0  0  0  0
   13.2197   -2.7822   26.3771 C   0  0  0  0  0  0  0  0  0  0  0  0
   12.8450   -1.3752   26.0165 C   0  0  0  0  0  0  0  0  0  0  0  0
   11.4541   -1.0661   25.5478 C   0  0  0  0  0  0  0  0  0  0  0  0
   10.4377   -2.1641   25.4398 C   0  0  0  0  0  0  0  0  0  0  0  0
    6.8302    5.4300   23.4088 C   0  0  0  0  0  0  0  0  0  0  0  0
    3.6450    7.3608   22.0391 C   0  0  0  0  0  0  0  0  0  0  0  0
    4.7866    6.9597   22.9256 N   0  0  0  0  0  0  0  0  0  0  0  0
    5.6886    5.8311   22.5224 C   0  0  0  0  0  0  0  0  0  0  0  0
    5.4490    5.1035   21.2326 O   0  0  0  0  0  0  0  0  0  0  0  0
    4.9439    7.4372   23.7720 H   0  0  0  0  0  0  0  0  0  0  0  0
    8.8937    2.8401   22.5601 C   0  0  0  0  0  0  0  0  0  0  0  0
    9.9625    3.8381   22.8941 O   0  0  0  0  0  0  0  0  0  0  0  0
   11.3710    3.6122   22.4305 C   0  0  0  0  0  0  0  0  0  0  0  0
   12.0904    4.6844   21.6671 C   0  0  0  0  0  0  0  0  0  0  0  0
   12.0602    2.3140   22.7303 C   0  0  0  0  0  0  0  0  0  0  0  0
 29 30  1  0  0  0
 30 31  1  0  0  0
 31 32  2  0  0  0
 31 28  1  0  0  0
 28  1  1  0  0  0
  1  2  1  0  0  0
  3  2  1  0  0  0
  3  4  1  0  0  0
  4  5  2  0  0  0
  4  6  1  0  0  0
  6 18  1  0  0  0
 18 19  2  0  0  0
 19 20  1  0  0  0
 20 21  2  0  0  0
 21 22  1  0  0  0
 22 23  2  0  0  0
 23 24  1  0  0  0
 24 25  2  0  0  0
 25 26  1  0  0  0
 26 27  2  0  0  0
  6  7  1  0  0  0
  7  8  1  0  0  0
  8 34  1  0  0  0
 34 35  1  0  0  0
 35 36  1  0  0  0
 36 37  1  0  0  0
 36 38  1  0  0  0
  3  9  1  0  0  0
  9 10  2  0  0  0
 10 11  1  0  0  0
 11 12  1  0  0  0
 11 13  2  0  0  0
 13 14  1  0  0  0
 14 15  2  0  0  0
 15 16  1  0  0  0
 16 17  2  0  0  0
 16  1  1  0  0  0
  8  3  1  0  0  0
 15  9  1  0  0  0
 27 18  1  0  0  0
 27 22  1  0  0  0
 30 33  1  0  0  0
M  END
> <minimizedAffinity>
-6.92183

> <CNNscore>
0.2079275548

> <CNNaffinity>
6.3519754410

> <CNN_VS>
1.3207507133

> <CNNaffinity_variance>
0.0569643863

$$$$
