


 38 42  0  0  0  0  0  0  0  0999 V2000
   -7.1283   -1.0136  -23.7108 N   0  0  0  0  0  0  0  0  0  0  0  0
   -7.5782    0.4110  -23.8455 C   0  0  0  0  0  0  0  0  0  0  0  0
   -9.0364    0.7493  -23.7501 C   0  0  0  0  0  0  0  0  0  0  0  0
  -10.4529    1.2373  -23.6771 C   0  0  0  0  0  0  0  0  0  0  0  0
  -11.5783    0.8079  -23.5176 O   0  0  0  0  0  0  0  0  0  0  0  0
  -10.4406    2.7257  -23.8634 N   0  0  0  0  0  0  0  0  0  0  0  0
   -9.0165    3.1576  -24.0514 C   0  0  0  0  0  0  0  0  0  0  0  0
   -8.1486    1.9361  -23.9814 C   0  0  0  0  0  0  0  0  0  0  0  0
  -10.0448   -0.3370  -23.5199 C   0  0  0  0  0  0  0  0  0  0  0  0
  -11.5030    0.0013  -23.4244 C   0  0  0  0  0  0  0  0  0  0  0  0
  -12.5114   -1.0851  -23.1942 C   0  0  0  0  0  0  0  0  0  0  0  0
  -13.9697   -0.7468  -23.0987 Cl  0  0  0  0  0  0  0  0  0  0  0  0
  -12.0616   -2.5097  -23.0595 C   0  0  0  0  0  0  0  0  0  0  0  0
  -10.6034   -2.8479  -23.1549 C   0  0  0  0  0  0  0  0  0  0  0  0
   -9.5950   -1.7616  -23.3851 C   0  0  0  0  0  0  0  0  0  0  0  0
   -8.1367   -2.0999  -23.4806 C   0  0  0  0  0  0  0  0  0  0  0  0
   -7.6869   -3.5245  -23.3459 O   0  0  0  0  0  0  0  0  0  0  0  0
  -11.6416    3.6243  -23.8618 C   0  0  0  0  0  0  0  0  0  0  0  0
  -12.4740    3.7618  -22.6215 C   0  0  0  0  0  0  0  0  0  0  0  0
  -13.6750    4.6604  -22.6200 N   0  0  0  0  0  0  0  0  0  0  0  0
  -14.0436    5.4216  -23.8588 C   0  0  0  0  0  0  0  0  0  0  0  0
  -13.2113    5.2841  -25.0991 C   0  0  0  0  0  0  0  0  0  0  0  0
  -13.5801    6.0454  -26.3380 C   0  0  0  0  0  0  0  0  0  0  0  0
  -12.7477    5.9079  -27.5782 C   0  0  0  0  0  0  0  0  0  0  0  0
  -11.5467    5.0092  -27.5798 C   0  0  0  0  0  0  0  0  0  0  0  0
  -11.1780    4.2480  -26.3410 C   0  0  0  0  0  0  0  0  0  0  0  0
  -12.0103    4.3855  -25.1006 C   0  0  0  0  0  0  0  0  0  0  0  0
   -5.6700   -1.3518  -23.8063 C   0  0  0  0  0  0  0  0  0  0  0  0
   -4.0167   -3.2631  -26.8663 C   0  0  0  0  0  0  0  0  0  0  0  0
   -4.6404   -3.0038  -25.5269 N   0  0  0  0  0  0  0  0  0  0  0  0
   -5.0464   -1.6111  -25.1456 C   0  0  0  0  0  0  0  0  0  0  0  0
   -4.8288   -0.4775  -26.1037 O   0  0  0  0  0  0  0  0  0  0  0  0
   -4.7832   -3.7477  -24.8981 H   0  0  0  0  0  0  0  0  0  0  0  0
   -6.6552    1.9067  -24.1185 C   0  0  0  0  0  0  0  0  0  0  0  0
   -5.8560    3.1548  -23.8876 O   0  0  0  0  0  0  0  0  0  0  0  0
   -5.0269    3.2954  -22.6455 C   0  0  0  0  0  0  0  0  0  0  0  0
   -4.0389    4.4178  -22.5264 C   0  0  0  0  0  0  0  0  0  0  0  0
   -5.1857    2.3137  -21.5226 C   0  0  0  0  0  0  0  0  0  0  0  0
 29 30  1  0  0  0
 30 31  1  0  0  0
 31 32  2  0  0  0
 31 28  1  0  0  0
 28  1  1  0  0  0
  1  2  1  0  0  0
  3  2  1  0  0  0
  3  4  1  0  0  0
  4  5  2  0  0  0
  4  6  1  0  0  0
  6 18  1  0  0  0
 18 19  2  0  0  0
 19 20  1  0  0  0
 20 21  2  0  0  0
 21 22  1  0  0  0
 22 23  2  0  0  0
 23 24  1  0  0  0
 24 25  2  0  0  0
 25 26  1  0  0  0
 26 27  2  0  0  0
  6  7  1  0  0  0
  7  8  1  0  0  0
  8 34  1  0  0  0
 34 35  1  0  0  0
 35 36  1  0  0  0
 36 37  1  0  0  0
 36 38  1  0  0  0
  3  9  1  0  0  0
  9 10  2  0  0  0
 10 11  1  0  0  0
 11 12  1  0  0  0
 11 13  2  0  0  0
 13 14  1  0  0  0
 14 15  2  0  0  0
 15 16  1  0  0  0
 16 17  2  0  0  0
 16  1  1  0  0  0
  8  3  1  0  0  0
 15  9  1  0  0  0
 27 18  1  0  0  0
 27 22  1  0  0  0
 30 33  1  0  0  0
M  END
> <minimizedAffinity>
-6.92338

> <CNNscore>
0.7438734770

> <CNNaffinity>
6.7511978149

> <CNN_VS>
5.0220370293

> <CNNaffinity_variance>
0.0840684995

$$$$



 38 42  0  0  0  0  0  0  0  0999 V2000
  -11.1828    3.7397  -23.9842 N   0  0  0  0  0  0  0  0  0  0  0  0
   -9.8620    3.0288  -23.9763 C   0  0  0  0  0  0  0  0  0  0  0  0
   -9.8094    1.5467  -23.7509 C   0  0  0  0  0  0  0  0  0  0  0  0
   -9.6008    0.0765  -23.5395 C   0  0  0  0  0  0  0  0  0  0  0  0
  -10.2424   -0.9346  -23.3334 O   0  0  0  0  0  0  0  0  0  0  0  0
   -8.1278   -0.1978  -23.6109 N   0  0  0  0  0  0  0  0  0  0  0  0
   -7.4260    1.1030  -23.8666 C   0  0  0  0  0  0  0  0  0  0  0  0
   -8.4653    2.1812  -23.9531 C   0  0  0  0  0  0  0  0  0  0  0  0
  -11.0776    0.7756  -23.5335 C   0  0  0  0  0  0  0  0  0  0  0  0
  -11.0249   -0.7064  -23.3082 C   0  0  0  0  0  0  0  0  0  0  0  0
  -12.2931   -1.4774  -23.0908 C   0  0  0  0  0  0  0  0  0  0  0  0
  -12.2405   -2.9595  -22.8654 Cl  0  0  0  0  0  0  0  0  0  0  0  0
  -13.6138   -0.7664  -23.0987 C   0  0  0  0  0  0  0  0  0  0  0  0
  -13.6665    0.7156  -23.3240 C   0  0  0  0  0  0  0  0  0  0  0  0
  -12.3983    1.4866  -23.5414 C   0  0  0  0  0  0  0  0  0  0  0  0
  -12.4509    2.9687  -23.7668 C   0  0  0  0  0  0  0  0  0  0  0  0
  -13.7717    3.6797  -23.7747 O   0  0  0  0  0  0  0  0  0  0  0  0
   -7.4718   -1.5376  -23.4543 C   0  0  0  0  0  0  0  0  0  0  0  0
   -6.9363   -1.9589  -22.1179 C   0  0  0  0  0  0  0  0  0  0  0  0
   -6.2803   -3.2987  -21.9613 N   0  0  0  0  0  0  0  0  0  0  0  0
   -6.1598   -4.2172  -23.1410 C   0  0  0  0  0  0  0  0  0  0  0  0
   -6.6953   -3.7960  -24.4773 C   0  0  0  0  0  0  0  0  0  0  0  0
   -6.5748   -4.7146  -25.6570 C   0  0  0  0  0  0  0  0  0  0  0  0
   -7.1103   -4.2933  -26.9933 C   0  0  0  0  0  0  0  0  0  0  0  0
   -7.7663   -2.9535  -27.1500 C   0  0  0  0  0  0  0  0  0  0  0  0
   -7.8868   -2.0349  -25.9703 C   0  0  0  0  0  0  0  0  0  0  0  0
   -7.3513   -2.4562  -24.6340 C   0  0  0  0  0  0  0  0  0  0  0  0
  -11.2354    5.2218  -24.2095 C   0  0  0  0  0  0  0  0  0  0  0  0
  -13.7079    6.3401  -27.1054 C   0  0  0  0  0  0  0  0  0  0  0  0
  -13.2079    5.7974  -25.7995 N   0  0  0  0  0  0  0  0  0  0  0  0
  -11.7354    5.7646  -25.5154 C   0  0  0  0  0  0  0  0  0  0  0  0
  -10.7629    6.2746  -26.5373 O   0  0  0  0  0  0  0  0  0  0  0  0
  -13.8461    5.4626  -25.1288 H   0  0  0  0  0  0  0  0  0  0  0  0
   -8.2060    3.6381  -24.1987 C   0  0  0  0  0  0  0  0  0  0  0  0
   -6.8010    4.1629  -24.1825 O   0  0  0  0  0  0  0  0  0  0  0  0
   -6.3349    5.0238  -23.0460 C   0  0  0  0  0  0  0  0  0  0  0  0
   -4.8833    5.3807  -22.9217 C   0  0  0  0  0  0  0  0  0  0  0  0
   -7.3204    5.5279  -22.0338 C   0  0  0  0  0  0  0  0  0  0  0  0
 29 30  1  0  0  0
 30 31  1  0  0  0
 31 32  2  0  0  0
 31 28  1  0  0  0
 28  1  1  0  0  0
  1  2  1  0  0  0
  3  2  1  0  0  0
  3  4  1  0  0  0
  4  5  2  0  0  0
  4  6  1  0  0  0
  6 18  1  0  0  0
 18 19  2  0  0  0
 19 20  1  0  0  0
 20 21  2  0  0  0
 21 22  1  0  0  0
 22 23  2  0  0  0
 23 24  1  0  0  0
 24 25  2  0  0  0
 25 26  1  0  0  0
 26 27  2  0  0  0
  6  7  1  0  0  0
  7  8  1  0  0  0
  8 34  1  0  0  0
 34 35  1  0  0  0
 35 36  1  0  0  0
 36 37  1  0  0  0
 36 38  1  0  0  0
  3  9  1  0  0  0
  9 10  2  0  0  0
 10 11  1  0  0  0
 11 12  1  0  0  0
 11 13  2  0  0  0
 13 14  1  0  0  0
 14 15  2  0  0  0
 15 16  1  0  0  0
 16 17  2  0  0  0
 16  1  1  0  0  0
  8  3  1  0  0  0
 15  9  1  0  0  0
 27 18  1  0  0  0
 27 22  1  0  0  0
 30 33  1  0  0  0
M  END
> <minimizedAffinity>
-6.88672

> <CNNscore>
0.4972797334

> <CNNaffinity>
6.7797327042

> <CNN_VS>
3.3714237213

> <CNNaffinity_variance>
0.2960189283

$$$$



 38 42  0  0  0  0  0  0  0  0999 V2000
   -7.0869   -1.1766  -21.9306 N   0  0  0  0  0  0  0  0  0  0  0  0
   -7.1437    0.1514  -22.6258 C   0  0  0  0  0  0  0  0  0  0  0  0
   -8.4309    0.6258  -23.2325 C   0  0  0  0  0  0  0  0  0  0  0  0
   -9.6402    1.2293  -23.8832 C   0  0  0  0  0  0  0  0  0  0  0  0
  -10.8115    0.9774  -24.0856 O   0  0  0  0  0  0  0  0  0  0  0  0
   -9.2452    2.5599  -24.4519 N   0  0  0  0  0  0  0  0  0  0  0  0
   -7.7917    2.7787  -24.1528 C   0  0  0  0  0  0  0  0  0  0  0  0
   -7.2885    1.5834  -23.3992 C   0  0  0  0  0  0  0  0  0  0  0  0
   -9.6613   -0.2277  -23.1440 C   0  0  0  0  0  0  0  0  0  0  0  0
  -10.9484    0.2467  -23.7506 C   0  0  0  0  0  0  0  0  0  0  0  0
  -12.1787   -0.6068  -23.6621 C   0  0  0  0  0  0  0  0  0  0  0  0
  -13.4660   -0.1324  -24.2688 Cl  0  0  0  0  0  0  0  0  0  0  0  0
  -12.1218   -1.9348  -22.9668 C   0  0  0  0  0  0  0  0  0  0  0  0
  -10.8347   -2.4092  -22.3602 C   0  0  0  0  0  0  0  0  0  0  0  0
   -9.6044   -1.5557  -22.4487 C   0  0  0  0  0  0  0  0  0  0  0  0
   -8.3171   -2.0301  -21.8420 C   0  0  0  0  0  0  0  0  0  0  0  0
   -8.2603   -3.3580  -21.1468 O   0  0  0  0  0  0  0  0  0  0  0  0
  -10.1456    3.5055  -25.1902 C   0  0  0  0  0  0  0  0  0  0  0  0
   -9.8937    3.8044  -26.6384 C   0  0  0  0  0  0  0  0  0  0  0  0
  -10.7940    4.7501  -27.3767 N   0  0  0  0  0  0  0  0  0  0  0  0
  -11.9463    5.3968  -26.6668 C   0  0  0  0  0  0  0  0  0  0  0  0
  -12.1982    5.0979  -25.2186 C   0  0  0  0  0  0  0  0  0  0  0  0
  -13.3506    5.7447  -24.5087 C   0  0  0  0  0  0  0  0  0  0  0  0
  -13.6024    5.4457  -23.0605 C   0  0  0  0  0  0  0  0  0  0  0  0
  -12.7020    4.5000  -22.3222 C   0  0  0  0  0  0  0  0  0  0  0  0
  -11.5497    3.8533  -23.0321 C   0  0  0  0  0  0  0  0  0  0  0  0
  -11.2978    4.1522  -24.4803 C   0  0  0  0  0  0  0  0  0  0  0  0
   -5.7996   -1.6510  -21.3239 C   0  0  0  0  0  0  0  0  0  0  0  0
   -5.5310   -5.5421  -22.0568 C   0  0  0  0  0  0  0  0  0  0  0  0
   -5.7691   -4.0749  -22.2586 N   0  0  0  0  0  0  0  0  0  0  0  0
   -5.5615   -3.1182  -21.1222 C   0  0  0  0  0  0  0  0  0  0  0  0
   -5.1156   -3.6286  -19.7839 O   0  0  0  0  0  0  0  0  0  0  0  0
   -6.0617   -3.7399  -23.1369 H   0  0  0  0  0  0  0  0  0  0  0  0
   -5.8885    1.3812  -22.8998 C   0  0  0  0  0  0  0  0  0  0  0  0
   -5.4553    2.0076  -21.6076 O   0  0  0  0  0  0  0  0  0  0  0  0
   -4.1300    1.6454  -21.0058 C   0  0  0  0  0  0  0  0  0  0  0  0
   -4.0434    1.2611  -19.5584 C   0  0  0  0  0  0  0  0  0  0  0  0
   -2.8911    1.6675  -21.8512 C   0  0  0  0  0  0  0  0  0  0  0  0
 29 30  1  0  0  0
 30 31  1  0  0  0
 31 32  2  0  0  0
 31 28  1  0  0  0
 28  1  1  0  0  0
  1  2  1  0  0  0
  3  2  1  0  0  0
  3  4  1  0  0  0
  4  5  2  0  0  0
  4  6  1  0  0  0
  6 18  1  0  0  0
 18 19  2  0  0  0
 19 20  1  0  0  0
 20 21  2  0  0  0
 21 22  1  0  0  0
 22 23  2  0  0  0
 23 24  1  0  0  0
 24 25  2  0  0  0
 25 26  1  0  0  0
 26 27  2  0  0  0
  6  7  1  0  0  0
  7  8  1  0  0  0
  8 34  1  0  0  0
 34 35  1  0  0  0
 35 36  1  0  0  0
 36 37  1  0  0  0
 36 38  1  0  0  0
  3  9  1  0  0  0
  9 10  2  0  0  0
 10 11  1  0  0  0
 11 12  1  0  0  0
 11 13  2  0  0  0
 13 14  1  0  0  0
 14 15  2  0  0  0
 15 16  1  0  0  0
 16 17  2  0  0  0
 16  1  1  0  0  0
  8  3  1  0  0  0
 15  9  1  0  0  0
 27 18  1  0  0  0
 27 22  1  0  0  0
 30 33  1  0  0  0
M  END
> <minimizedAffinity>
-7.18667

> <CNNscore>
0.4885542989

> <CNNaffinity>
6.5760717392

> <CNN_VS>
3.2127680779

> <CNNaffinity_variance>
0.0336882137

$$$$



 38 42  0  0  0  0  0  0  0  0999 V2000
   -5.3125   -6.1887  -23.5336 N   0  0  0  0  0  0  0  0  0  0  0  0
   -5.8941   -4.9200  -22.9840 C   0  0  0  0  0  0  0  0  0  0  0  0
   -6.9535   -4.1864  -23.7517 C   0  0  0  0  0  0  0  0  0  0  0  0
   -8.0134   -3.3480  -24.4025 C   0  0  0  0  0  0  0  0  0  0  0  0
   -8.6978   -3.3270  -25.4063 O   0  0  0  0  0  0  0  0  0  0  0  0
   -8.2924   -2.1767  -23.5079 N   0  0  0  0  0  0  0  0  0  0  0  0
   -7.4048   -2.2913  -22.3041 C   0  0  0  0  0  0  0  0  0  0  0  0
   -6.5774   -3.5334  -22.4548 C   0  0  0  0  0  0  0  0  0  0  0  0
   -7.4314   -4.7215  -25.0691 C   0  0  0  0  0  0  0  0  0  0  0  0
   -8.4908   -3.9880  -25.8368 C   0  0  0  0  0  0  0  0  0  0  0  0
   -8.9686   -4.5231  -27.1541 C   0  0  0  0  0  0  0  0  0  0  0  0
  -10.0280   -3.7895  -27.9219 Cl  0  0  0  0  0  0  0  0  0  0  0  0
   -8.3869   -5.7918  -27.7037 C   0  0  0  0  0  0  0  0  0  0  0  0
   -7.3275   -6.5254  -26.9360 C   0  0  0  0  0  0  0  0  0  0  0  0
   -6.8497   -5.9903  -25.6187 C   0  0  0  0  0  0  0  0  0  0  0  0
   -5.7903   -6.7239  -24.8509 C   0  0  0  0  0  0  0  0  0  0  0  0
   -5.2086   -7.9926  -25.4005 O   0  0  0  0  0  0  0  0  0  0  0  0
   -9.2846   -1.0830  -23.7709 C   0  0  0  0  0  0  0  0  0  0  0  0
   -8.8353    0.2015  -24.4019 C   0  0  0  0  0  0  0  0  0  0  0  0
   -9.8275    1.2953  -24.6649 N   0  0  0  0  0  0  0  0  0  0  0  0
  -11.2691    1.1045  -24.2968 C   0  0  0  0  0  0  0  0  0  0  0  0
  -11.7184   -0.1800  -23.6658 C   0  0  0  0  0  0  0  0  0  0  0  0
  -13.1600   -0.3707  -23.2978 C   0  0  0  0  0  0  0  0  0  0  0  0
  -13.6093   -1.6553  -22.6667 C   0  0  0  0  0  0  0  0  0  0  0  0
  -12.6170   -2.7490  -22.4038 C   0  0  0  0  0  0  0  0  0  0  0  0
  -11.1755   -2.5583  -22.7718 C   0  0  0  0  0  0  0  0  0  0  0  0
  -10.7262   -1.2737  -23.4028 C   0  0  0  0  0  0  0  0  0  0  0  0
   -4.2530   -6.9223  -22.7658 C   0  0  0  0  0  0  0  0  0  0  0  0
   -0.6954   -8.5197  -23.5020 C   0  0  0  0  0  0  0  0  0  0  0  0
   -2.0393   -8.2774  -22.8813 N   0  0  0  0  0  0  0  0  0  0  0  0
   -2.9091   -7.1647  -23.3865 C   0  0  0  0  0  0  0  0  0  0  0  0
   -2.4351   -6.2944  -24.5126 O   0  0  0  0  0  0  0  0  0  0  0  0
   -2.3504   -8.8486  -22.1422 H   0  0  0  0  0  0  0  0  0  0  0  0
   -5.5536   -4.0344  -21.4797 C   0  0  0  0  0  0  0  0  0  0  0  0
   -5.4192   -3.3860  -20.1338 O   0  0  0  0  0  0  0  0  0  0  0  0
   -5.5300   -1.8957  -20.0047 C   0  0  0  0  0  0  0  0  0  0  0  0
   -4.6333   -1.0043  -20.8117 C   0  0  0  0  0  0  0  0  0  0  0  0
   -6.5376   -1.2968  -19.0688 C   0  0  0  0  0  0  0  0  0  0  0  0
 29 30  1  0  0  0
 30 31  1  0  0  0
 31 32  2  0  0  0
 31 28  1  0  0  0
 28  1  1  0  0  0
  1  2  1  0  0  0
  3  2  1  0  0  0
  3  4  1  0  0  0
  4  5  2  0  0  0
  4  6  1  0  0  0
  6 18  1  0  0  0
 18 19  2  0  0  0
 19 20  1  0  0  0
 20 21  2  0  0  0
 21 22  1  0  0  0
 22 23  2  0  0  0
 23 24  1  0  0  0
 24 25  2  0  0  0
 25 26  1  0  0  0
 26 27  2  0  0  0
  6  7  1  0  0  0
  7  8  1  0  0  0
  8 34  1  0  0  0
 34 35  1  0  0  0
 35 36  1  0  0  0
 36 37  1  0  0  0
 36 38  1  0  0  0
  3  9  1  0  0  0
  9 10  2  0  0  0
 10 11  1  0  0  0
 11 12  1  0  0  0
 11 13  2  0  0  0
 13 14  1  0  0  0
 14 15  2  0  0  0
 15 16  1  0  0  0
 16 17  2  0  0  0
 16  1  1  0  0  0
  8  3  1  0  0  0
 15  9  1  0  0  0
 27 18  1  0  0  0
 27 22  1  0  0  0
 30 33  1  0  0  0
M  END
> <minimizedAffinity>
-7.41299

> <CNNscore>
0.4290389121

> <CNNaffinity>
6.6481604576

> <CNN_VS>
2.8523194790

> <CNNaffinity_variance>
0.1131669432

$$$$



 38 42  0  0  0  0  0  0  0  0999 V2000
   -9.0635    2.6534  -24.6690 N   0  0  0  0  0  0  0  0  0  0  0  0
   -8.1670    1.4542  -24.7606 C   0  0  0  0  0  0  0  0  0  0  0  0
   -8.6941    0.0950  -24.4078 C   0  0  0  0  0  0  0  0  0  0  0  0
   -9.0783   -1.3195  -24.0892 C   0  0  0  0  0  0  0  0  0  0  0  0
  -10.0390   -1.9607  -23.7120 O   0  0  0  0  0  0  0  0  0  0  0  0
   -7.8776   -2.1889  -24.3186 N   0  0  0  0  0  0  0  0  0  0  0  0
   -6.7514   -1.3117  -24.7790 C   0  0  0  0  0  0  0  0  0  0  0  0
   -7.2560    0.0998  -24.8341 C   0  0  0  0  0  0  0  0  0  0  0  0
  -10.1178   -0.0652  -23.9632 C   0  0  0  0  0  0  0  0  0  0  0  0
  -10.6449   -1.4244  -23.6103 C   0  0  0  0  0  0  0  0  0  0  0  0
  -12.0685   -1.5846  -23.1658 C   0  0  0  0  0  0  0  0  0  0  0  0
  -12.5957   -2.9439  -22.8129 Cl  0  0  0  0  0  0  0  0  0  0  0  0
  -12.9650   -0.3854  -23.0742 C   0  0  0  0  0  0  0  0  0  0  0  0
  -12.4379    0.9738  -23.4270 C   0  0  0  0  0  0  0  0  0  0  0  0
  -11.0143    1.1339  -23.8715 C   0  0  0  0  0  0  0  0  0  0  0  0
  -10.4871    2.4932  -24.2244 C   0  0  0  0  0  0  0  0  0  0  0  0
  -11.3836    3.6923  -24.1328 O   0  0  0  0  0  0  0  0  0  0  0  0
   -7.8144   -3.6746  -24.1222 C   0  0  0  0  0  0  0  0  0  0  0  0
   -7.2241   -4.2404  -22.8646 C   0  0  0  0  0  0  0  0  0  0  0  0
   -7.1608   -5.7262  -22.6681 N   0  0  0  0  0  0  0  0  0  0  0  0
   -7.6879   -6.6461  -23.7292 C   0  0  0  0  0  0  0  0  0  0  0  0
   -8.2782   -6.0803  -24.9868 C   0  0  0  0  0  0  0  0  0  0  0  0
   -8.8053   -7.0003  -26.0479 C   0  0  0  0  0  0  0  0  0  0  0  0
   -9.3956   -6.4344  -27.3054 C   0  0  0  0  0  0  0  0  0  0  0  0
   -9.4588   -4.9486  -27.5019 C   0  0  0  0  0  0  0  0  0  0  0  0
   -8.9317   -4.0287  -26.4408 C   0  0  0  0  0  0  0  0  0  0  0  0
   -8.3414   -4.5945  -25.1832 C   0  0  0  0  0  0  0  0  0  0  0  0
   -8.5363    4.0127  -25.0219 C   0  0  0  0  0  0  0  0  0  0  0  0
   -7.0120    5.8305  -21.8404 C   0  0  0  0  0  0  0  0  0  0  0  0
   -7.9899    5.1463  -22.7489 N   0  0  0  0  0  0  0  0  0  0  0  0
   -7.5583    4.6969  -24.1134 C   0  0  0  0  0  0  0  0  0  0  0  0
   -6.1487    4.9317  -24.5693 O   0  0  0  0  0  0  0  0  0  0  0  0
   -8.9151    4.9922  -22.4497 H   0  0  0  0  0  0  0  0  0  0  0  0
   -6.4618    1.3047  -25.2436 C   0  0  0  0  0  0  0  0  0  0  0  0
   -5.0885    1.5242  -24.6819 O   0  0  0  0  0  0  0  0  0  0  0  0
   -4.8433    1.3537  -23.2120 C   0  0  0  0  0  0  0  0  0  0  0  0
   -4.0205    0.2011  -22.7176 C   0  0  0  0  0  0  0  0  0  0  0  0
   -5.4208    2.3358  -22.2364 C   0  0  0  0  0  0  0  0  0  0  0  0
 29 30  1  0  0  0
 30 31  1  0  0  0
 31 32  2  0  0  0
 31 28  1  0  0  0
 28  1  1  0  0  0
  1  2  1  0  0  0
  3  2  1  0  0  0
  3  4  1  0  0  0
  4  5  2  0  0  0
  4  6  1  0  0  0
  6 18  1  0  0  0
 18 19  2  0  0  0
 19 20  1  0  0  0
 20 21  2  0  0  0
 21 22  1  0  0  0
 22 23  2  0  0  0
 23 24  1  0  0  0
 24 25  2  0  0  0
 25 26  1  0  0  0
 26 27  2  0  0  0
  6  7  1  0  0  0
  7  8  1  0  0  0
  8 34  1  0  0  0
 34 35  1  0  0  0
 35 36  1  0  0  0
 36 37  1  0  0  0
 36 38  1  0  0  0
  3  9  1  0  0  0
  9 10  2  0  0  0
 10 11  1  0  0  0
 11 12  1  0  0  0
 11 13  2  0  0  0
 13 14  1  0  0  0
 14 15  2  0  0  0
 15 16  1  0  0  0
 16 17  2  0  0  0
 16  1  1  0  0  0
  8  3  1  0  0  0
 15  9  1  0  0  0
 27 18  1  0  0  0
 27 22  1  0  0  0
 30 33  1  0  0  0
M  END
> <minimizedAffinity>
-7.04745

> <CNNscore>
0.3357366323

> <CNNaffinity>
6.4503874779

> <CNN_VS>
2.1656312943

> <CNNaffinity_variance>
0.1420772374

$$$$



 38 42  0  0  0  0  0  0  0  0999 V2000
  -11.5339    3.9511  -24.0753 N   0  0  0  0  0  0  0  0  0  0  0  0
  -10.1602    3.3574  -23.9742 C   0  0  0  0  0  0  0  0  0  0  0  0
   -9.9947    1.8924  -23.6978 C   0  0  0  0  0  0  0  0  0  0  0  0
   -9.6744    0.4522  -23.4273 C   0  0  0  0  0  0  0  0  0  0  0  0
  -10.2385   -0.6042  -23.2223 O   0  0  0  0  0  0  0  0  0  0  0  0
   -8.1818    0.3043  -23.4118 N   0  0  0  0  0  0  0  0  0  0  0  0
   -7.5796    1.6532  -23.6726 C   0  0  0  0  0  0  0  0  0  0  0  0
   -8.7001    2.6346  -23.8493 C   0  0  0  0  0  0  0  0  0  0  0  0
  -11.2031    1.0211  -23.5224 C   0  0  0  0  0  0  0  0  0  0  0  0
  -11.0377   -0.4439  -23.2460 C   0  0  0  0  0  0  0  0  0  0  0  0
  -12.2461   -1.3151  -23.0707 C   0  0  0  0  0  0  0  0  0  0  0  0
  -12.0807   -2.7802  -22.7943 Cl  0  0  0  0  0  0  0  0  0  0  0  0
  -13.6198   -0.7214  -23.1718 C   0  0  0  0  0  0  0  0  0  0  0  0
  -13.7853    0.7436  -23.4483 C   0  0  0  0  0  0  0  0  0  0  0  0
  -12.5769    1.6148  -23.6236 C   0  0  0  0  0  0  0  0  0  0  0  0
  -12.7423    3.0799  -23.9000 C   0  0  0  0  0  0  0  0  0  0  0  0
  -14.1161    3.6736  -24.0011 O   0  0  0  0  0  0  0  0  0  0  0  0
   -7.4243   -0.9689  -23.1766 C   0  0  0  0  0  0  0  0  0  0  0  0
   -7.2264   -1.9423  -24.3006 C   0  0  0  0  0  0  0  0  0  0  0  0
   -6.4689   -3.2155  -24.0655 N   0  0  0  0  0  0  0  0  0  0  0  0
   -5.9094   -3.5152  -22.7064 C   0  0  0  0  0  0  0  0  0  0  0  0
   -6.1074   -2.5418  -21.5825 C   0  0  0  0  0  0  0  0  0  0  0  0
   -5.5478   -2.8416  -20.2233 C   0  0  0  0  0  0  0  0  0  0  0  0
   -5.7458   -1.8681  -19.0995 C   0  0  0  0  0  0  0  0  0  0  0  0
   -6.5032   -0.5949  -19.3346 C   0  0  0  0  0  0  0  0  0  0  0  0
   -7.0627   -0.2952  -20.6936 C   0  0  0  0  0  0  0  0  0  0  0  0
   -6.8648   -1.2686  -21.8176 C   0  0  0  0  0  0  0  0  0  0  0  0
  -11.6993    5.4162  -24.3517 C   0  0  0  0  0  0  0  0  0  0  0  0
  -13.9950    6.4433  -27.4217 C   0  0  0  0  0  0  0  0  0  0  0  0
  -13.5756    5.9800  -26.0581 N   0  0  0  0  0  0  0  0  0  0  0  0
  -12.1187    5.8794  -25.7153 C   0  0  0  0  0  0  0  0  0  0  0  0
  -11.0812    6.2421  -26.7363 O   0  0  0  0  0  0  0  0  0  0  0  0
  -14.2565    5.7420  -25.3881 H   0  0  0  0  0  0  0  0  0  0  0  0
   -8.5519    4.1009  -24.1286 C   0  0  0  0  0  0  0  0  0  0  0  0
   -7.1861    4.6992  -24.2914 O   0  0  0  0  0  0  0  0  0  0  0  0
   -6.4133    5.1437  -23.0851 C   0  0  0  0  0  0  0  0  0  0  0  0
   -7.0526    6.0530  -22.0779 C   0  0  0  0  0  0  0  0  0  0  0  0
   -5.0011    4.6789  -22.8860 C   0  0  0  0  0  0  0  0  0  0  0  0
 29 30  1  0  0  0
 30 31  1  0  0  0
 31 32  2  0  0  0
 31 28  1  0  0  0
 28  1  1  0  0  0
  1  2  1  0  0  0
  3  2  1  0  0  0
  3  4  1  0  0  0
  4  5  2  0  0  0
  4  6  1  0  0  0
  6 18  1  0  0  0
 18 19  2  0  0  0
 19 20  1  0  0  0
 20 21  2  0  0  0
 21 22  1  0  0  0
 22 23  2  0  0  0
 23 24  1  0  0  0
 24 25  2  0  0  0
 25 26  1  0  0  0
 26 27  2  0  0  0
  6  7  1  0  0  0
  7  8  1  0  0  0
  8 34  1  0  0  0
 34 35  1  0  0  0
 35 36  1  0  0  0
 36 37  1  0  0  0
 36 38  1  0  0  0
  3  9  1  0  0  0
  9 10  2  0  0  0
 10 11  1  0  0  0
 11 12  1  0  0  0
 11 13  2  0  0  0
 13 14  1  0  0  0
 14 15  2  0  0  0
 15 16  1  0  0  0
 16 17  2  0  0  0
 16  1  1  0  0  0
  8  3  1  0  0  0
 15  9  1  0  0  0
 27 18  1  0  0  0
 27 22  1  0  0  0
 30 33  1  0  0  0
M  END
> <minimizedAffinity>
-7.72990

> <CNNscore>
0.3314654529

> <CNNaffinity>
6.5032625198

> <CNN_VS>
2.1556067467

> <CNNaffinity_variance>
0.0877838805

$$$$



 38 42  0  0  0  0  0  0  0  0999 V2000
   -7.2663   -1.2688  -22.1717 N   0  0  0  0  0  0  0  0  0  0  0  0
   -7.3913    0.1604  -22.6096 C   0  0  0  0  0  0  0  0  0  0  0  0
   -8.7246    0.7009  -23.0340 C   0  0  0  0  0  0  0  0  0  0  0  0
   -9.9852    1.3784  -23.4834 C   0  0  0  0  0  0  0  0  0  0  0  0
  -11.1639    1.1352  -23.6505 O   0  0  0  0  0  0  0  0  0  0  0  0
   -9.6506    2.7998  -23.8265 N   0  0  0  0  0  0  0  0  0  0  0  0
   -8.1832    3.0008  -23.5891 C   0  0  0  0  0  0  0  0  0  0  0  0
   -7.6109    1.7037  -23.0994 C   0  0  0  0  0  0  0  0  0  0  0  0
   -9.9329   -0.1878  -23.0207 C   0  0  0  0  0  0  0  0  0  0  0  0
  -11.2662    0.3527  -23.4451 C   0  0  0  0  0  0  0  0  0  0  0  0
  -12.4745   -0.5360  -23.4317 C   0  0  0  0  0  0  0  0  0  0  0  0
  -13.8078    0.0045  -23.8562 Cl  0  0  0  0  0  0  0  0  0  0  0  0
  -12.3494   -1.9652  -22.9939 C   0  0  0  0  0  0  0  0  0  0  0  0
  -11.0162   -2.5057  -22.5694 C   0  0  0  0  0  0  0  0  0  0  0  0
   -9.8079   -1.6170  -22.5828 C   0  0  0  0  0  0  0  0  0  0  0  0
   -8.4746   -2.1575  -22.1583 C   0  0  0  0  0  0  0  0  0  0  0  0
   -8.3495   -3.5867  -21.7205 O   0  0  0  0  0  0  0  0  0  0  0  0
  -10.6143    3.8379  -24.3202 C   0  0  0  0  0  0  0  0  0  0  0  0
  -11.5428    4.5174  -23.3578 C   0  0  0  0  0  0  0  0  0  0  0  0
  -12.5064    5.5555  -23.8516 N   0  0  0  0  0  0  0  0  0  0  0  0
  -12.5416    5.9140  -25.3077 C   0  0  0  0  0  0  0  0  0  0  0  0
  -11.6131    5.2344  -26.2700 C   0  0  0  0  0  0  0  0  0  0  0  0
  -11.6484    5.5929  -27.7262 C   0  0  0  0  0  0  0  0  0  0  0  0
  -10.7199    4.9133  -28.6885 C   0  0  0  0  0  0  0  0  0  0  0  0
   -9.7562    3.8752  -28.1948 C   0  0  0  0  0  0  0  0  0  0  0  0
   -9.7210    3.5167  -26.7387 C   0  0  0  0  0  0  0  0  0  0  0  0
  -10.6495    4.1963  -25.7763 C   0  0  0  0  0  0  0  0  0  0  0  0
   -5.9329   -1.8093  -21.7472 C   0  0  0  0  0  0  0  0  0  0  0  0
   -5.6505   -5.6301  -22.7823 C   0  0  0  0  0  0  0  0  0  0  0  0
   -5.8638   -4.1483  -22.8760 N   0  0  0  0  0  0  0  0  0  0  0  0
   -5.7197   -3.2911  -21.6535 C   0  0  0  0  0  0  0  0  0  0  0  0
   -5.3623   -3.9156  -20.3373 O   0  0  0  0  0  0  0  0  0  0  0  0
   -6.0983   -3.7384  -23.7398 H   0  0  0  0  0  0  0  0  0  0  0  0
   -6.1767    1.4533  -22.7384 C   0  0  0  0  0  0  0  0  0  0  0  0
   -5.4219    2.4602  -21.9221 O   0  0  0  0  0  0  0  0  0  0  0  0
   -4.2729    2.0205  -21.0639 C   0  0  0  0  0  0  0  0  0  0  0  0
   -2.8954    2.5542  -21.3238 C   0  0  0  0  0  0  0  0  0  0  0  0
   -4.5015    1.0472  -19.9457 C   0  0  0  0  0  0  0  0  0  0  0  0
 29 30  1  0  0  0
 30 31  1  0  0  0
 31 32  2  0  0  0
 31 28  1  0  0  0
 28  1  1  0  0  0
  1  2  1  0  0  0
  3  2  1  0  0  0
  3  4  1  0  0  0
  4  5  2  0  0  0
  4  6  1  0  0  0
  6 18  1  0  0  0
 18 19  2  0  0  0
 19 20  1  0  0  0
 20 21  2  0  0  0
 21 22  1  0  0  0
 22 23  2  0  0  0
 23 24  1  0  0  0
 24 25  2  0  0  0
 25 26  1  0  0  0
 26 27  2  0  0  0
  6  7  1  0  0  0
  7  8  1  0  0  0
  8 34  1  0  0  0
 34 35  1  0  0  0
 35 36  1  0  0  0
 36 37  1  0  0  0
 36 38  1  0  0  0
  3  9  1  0  0  0
  9 10  2  0  0  0
 10 11  1  0  0  0
 11 12  1  0  0  0
 11 13  2  0  0  0
 13 14  1  0  0  0
 14 15  2  0  0  0
 15 16  1  0  0  0
 16 17  2  0  0  0
 16  1  1  0  0  0
  8  3  1  0  0  0
 15  9  1  0  0  0
 27 18  1  0  0  0
 27 22  1  0  0  0
 30 33  1  0  0  0
M  END
> <minimizedAffinity>
-6.93515

> <CNNscore>
0.3155489564

> <CNNaffinity>
6.4104743004

> <CNN_VS>
2.0228185654

> <CNNaffinity_variance>
0.0690962300

$$$$



 38 42  0  0  0  0  0  0  0  0999 V2000
   -7.6425   -2.9784  -22.4389 N   0  0  0  0  0  0  0  0  0  0  0  0
   -8.5971   -1.9872  -23.0357 C   0  0  0  0  0  0  0  0  0  0  0  0
   -8.2617   -0.5252  -23.0292 C   0  0  0  0  0  0  0  0  0  0  0  0
   -8.0635    0.9602  -23.0952 C   0  0  0  0  0  0  0  0  0  0  0  0
   -7.2512    1.8059  -22.7770 O   0  0  0  0  0  0  0  0  0  0  0  0
   -9.2615    1.5581  -23.7716 N   0  0  0  0  0  0  0  0  0  0  0  0
  -10.2000    0.4422  -24.1237 C   0  0  0  0  0  0  0  0  0  0  0  0
   -9.5820   -0.8453  -23.6649 C   0  0  0  0  0  0  0  0  0  0  0  0
   -6.9715   -0.0543  -22.4259 C   0  0  0  0  0  0  0  0  0  0  0  0
   -6.6361    1.4076  -22.4194 C   0  0  0  0  0  0  0  0  0  0  0  0
   -5.3460    1.8784  -21.8160 C   0  0  0  0  0  0  0  0  0  0  0  0
   -5.0105    3.3404  -21.8095 Cl  0  0  0  0  0  0  0  0  0  0  0  0
   -4.3914    0.8872  -21.2192 C   0  0  0  0  0  0  0  0  0  0  0  0
   -4.7268   -0.5748  -21.2257 C   0  0  0  0  0  0  0  0  0  0  0  0
   -6.0169   -1.0455  -21.8290 C   0  0  0  0  0  0  0  0  0  0  0  0
   -6.3524   -2.5076  -21.8356 C   0  0  0  0  0  0  0  0  0  0  0  0
   -5.3977   -3.4988  -21.2388 O   0  0  0  0  0  0  0  0  0  0  0  0
   -9.4821    3.0159  -24.0474 C   0  0  0  0  0  0  0  0  0  0  0  0
   -8.3270    3.8878  -24.4420 C   0  0  0  0  0  0  0  0  0  0  0  0
   -8.5477    5.3456  -24.7179 N   0  0  0  0  0  0  0  0  0  0  0  0
   -9.9234    5.9315  -24.5992 C   0  0  0  0  0  0  0  0  0  0  0  0
  -11.0785    5.0596  -24.2046 C   0  0  0  0  0  0  0  0  0  0  0  0
  -12.4542    5.6456  -24.0859 C   0  0  0  0  0  0  0  0  0  0  0  0
  -13.6092    4.7736  -23.6913 C   0  0  0  0  0  0  0  0  0  0  0  0
  -13.3886    3.3158  -23.4154 C   0  0  0  0  0  0  0  0  0  0  0  0
  -12.0129    2.7299  -23.5341 C   0  0  0  0  0  0  0  0  0  0  0  0
  -10.8578    3.6018  -23.9287 C   0  0  0  0  0  0  0  0  0  0  0  0
   -7.9779   -4.4404  -22.4454 C   0  0  0  0  0  0  0  0  0  0  0  0
   -7.9291   -6.4039  -25.8939 C   0  0  0  0  0  0  0  0  0  0  0  0
   -8.3954   -5.5324  -24.7656 N   0  0  0  0  0  0  0  0  0  0  0  0
   -7.5117   -5.3118  -23.5738 C   0  0  0  0  0  0  0  0  0  0  0  0
   -6.1617   -5.9626  -23.5103 O   0  0  0  0  0  0  0  0  0  0  0  0
   -9.2814   -5.1053  -24.8072 H   0  0  0  0  0  0  0  0  0  0  0  0
  -10.1797   -2.2129  -23.8153 C   0  0  0  0  0  0  0  0  0  0  0  0
  -11.1576   -2.7202  -22.7975 O   0  0  0  0  0  0  0  0  0  0  0  0
  -12.5361   -2.1332  -22.7240 C   0  0  0  0  0  0  0  0  0  0  0  0
  -12.8953   -0.9533  -23.5777 C   0  0  0  0  0  0  0  0  0  0  0  0
  -13.5553   -2.7260  -21.7968 C   0  0  0  0  0  0  0  0  0  0  0  0
 29 30  1  0  0  0
 30 31  1  0  0  0
 31 32  2  0  0  0
 31 28  1  0  0  0
 28  1  1  0  0  0
  1  2  1  0  0  0
  3  2  1  0  0  0
  3  4  1  0  0  0
  4  5  2  0  0  0
  4  6  1  0  0  0
  6 18  1  0  0  0
 18 19  2  0  0  0
 19 20  1  0  0  0
 20 21  2  0  0  0
 21 22  1  0  0  0
 22 23  2  0  0  0
 23 24  1  0  0  0
 24 25  2  0  0  0
 25 26  1  0  0  0
 26 27  2  0  0  0
  6  7  1  0  0  0
  7  8  1  0  0  0
  8 34  1  0  0  0
 34 35  1  0  0  0
 35 36  1  0  0  0
 36 37  1  0  0  0
 36 38  1  0  0  0
  3  9  1  0  0  0
  9 10  2  0  0  0
 10 11  1  0  0  0
 11 12  1  0  0  0
 11 13  2  0  0  0
 13 14  1  0  0  0
 14 15  2  0  0  0
 15 16  1  0  0  0
 16 17  2  0  0  0
 16  1  1  0  0  0
  8  3  1  0  0  0
 15  9  1  0  0  0
 27 18  1  0  0  0
 27 22  1  0  0  0
 30 33  1  0  0  0
M  END
> <minimizedAffinity>
-7.54495

> <CNNscore>
0.2566338480

> <CNNaffinity>
6.3723502159

> <CNN_VS>
1.6353607178

> <CNNaffinity_variance>
0.4300731719

$$$$



 38 42  0  0  0  0  0  0  0  0999 V2000
   -6.1176   -4.1398  -21.7226 N   0  0  0  0  0  0  0  0  0  0  0  0
   -6.7057   -3.5924  -22.9892 C   0  0  0  0  0  0  0  0  0  0  0  0
   -6.7167   -2.1124  -23.2328 C   0  0  0  0  0  0  0  0  0  0  0  0
   -6.7980   -0.6638  -23.6132 C   0  0  0  0  0  0  0  0  0  0  0  0
   -6.5006    0.4310  -23.1780 O   0  0  0  0  0  0  0  0  0  0  0  0
   -7.4584   -0.5737  -24.9570 N   0  0  0  0  0  0  0  0  0  0  0  0
   -7.7853   -1.9667  -25.4071 C   0  0  0  0  0  0  0  0  0  0  0  0
   -7.3269   -2.9177  -24.3415 C   0  0  0  0  0  0  0  0  0  0  0  0
   -6.1395   -1.1796  -22.2096 C   0  0  0  0  0  0  0  0  0  0  0  0
   -6.1505    0.3004  -22.4532 C   0  0  0  0  0  0  0  0  0  0  0  0
   -5.5733    1.2331  -21.4301 C   0  0  0  0  0  0  0  0  0  0  0  0
   -5.5842    2.7132  -21.6736 Cl  0  0  0  0  0  0  0  0  0  0  0  0
   -4.9851    0.6858  -20.1634 C   0  0  0  0  0  0  0  0  0  0  0  0
   -4.9741   -0.7942  -19.9198 C   0  0  0  0  0  0  0  0  0  0  0  0
   -5.5513   -1.7269  -20.9429 C   0  0  0  0  0  0  0  0  0  0  0  0
   -5.5404   -3.2070  -20.6994 C   0  0  0  0  0  0  0  0  0  0  0  0
   -4.9522   -3.7544  -19.4327 O   0  0  0  0  0  0  0  0  0  0  0  0
   -7.7420    0.6879  -25.7172 C   0  0  0  0  0  0  0  0  0  0  0  0
   -6.8888    1.0634  -26.8924 C   0  0  0  0  0  0  0  0  0  0  0  0
   -7.1725    2.3250  -27.6526 N   0  0  0  0  0  0  0  0  0  0  0  0
   -8.3094    3.2111  -27.2376 C   0  0  0  0  0  0  0  0  0  0  0  0
   -9.1625    2.8357  -26.0623 C   0  0  0  0  0  0  0  0  0  0  0  0
  -10.2995    3.7219  -25.6473 C   0  0  0  0  0  0  0  0  0  0  0  0
  -11.1526    3.3464  -24.4721 C   0  0  0  0  0  0  0  0  0  0  0  0
  -10.8689    2.0848  -23.7119 C   0  0  0  0  0  0  0  0  0  0  0  0
   -9.7321    1.1986  -24.1269 C   0  0  0  0  0  0  0  0  0  0  0  0
   -8.8789    1.5741  -25.3022 C   0  0  0  0  0  0  0  0  0  0  0  0
   -6.1066   -5.6199  -21.4790 C   0  0  0  0  0  0  0  0  0  0  0  0
   -3.5286   -7.2597  -24.0117 C   0  0  0  0  0  0  0  0  0  0  0  0
   -4.1151   -6.3353  -22.9863 N   0  0  0  0  0  0  0  0  0  0  0  0
   -5.5201   -6.5443  -22.5044 C   0  0  0  0  0  0  0  0  0  0  0  0
   -6.3386   -7.6778  -23.0478 O   0  0  0  0  0  0  0  0  0  0  0  0
   -3.5779   -5.5914  -22.6297 H   0  0  0  0  0  0  0  0  0  0  0  0
   -7.4561   -4.4117  -24.3782 C   0  0  0  0  0  0  0  0  0  0  0  0
   -8.7625   -5.0424  -24.7593 O   0  0  0  0  0  0  0  0  0  0  0  0
   -8.8191   -6.0245  -25.8917 C   0  0  0  0  0  0  0  0  0  0  0  0
  -10.1274   -6.3199  -26.5635 C   0  0  0  0  0  0  0  0  0  0  0  0
   -7.5676   -6.7111  -26.3524 C   0  0  0  0  0  0  0  0  0  0  0  0
 29 30  1  0  0  0
 30 31  1  0  0  0
 31 32  2  0  0  0
 31 28  1  0  0  0
 28  1  1  0  0  0
  1  2  1  0  0  0
  3  2  1  0  0  0
  3  4  1  0  0  0
  4  5  2  0  0  0
  4  6  1  0  0  0
  6 18  1  0  0  0
 18 19  2  0  0  0
 19 20  1  0  0  0
 20 21  2  0  0  0
 21 22  1  0  0  0
 22 23  2  0  0  0
 23 24  1  0  0  0
 24 25  2  0  0  0
 25 26  1  0  0  0
 26 27  2  0  0  0
  6  7  1  0  0  0
  7  8  1  0  0  0
  8 34  1  0  0  0
 34 35  1  0  0  0
 35 36  1  0  0  0
 36 37  1  0  0  0
 36 38  1  0  0  0
  3  9  1  0  0  0
  9 10  2  0  0  0
 10 11  1  0  0  0
 11 12  1  0  0  0
 11 13  2  0  0  0
 13 14  1  0  0  0
 14 15  2  0  0  0
 15 16  1  0  0  0
 16 17  2  0  0  0
 16  1  1  0  0  0
  8  3  1  0  0  0
 15  9  1  0  0  0
 27 18  1  0  0  0
 27 22  1  0  0  0
 30 33  1  0  0  0
M  END
> <minimizedAffinity>
-7.51846

> <CNNscore>
0.2517846227

> <CNNaffinity>
6.2740631104

> <CNN_VS>
1.5797126293

> <CNNaffinity_variance>
0.0204088595

$$$$
