


 22 25  0  0  0  0  0  0  0  0999 V2000
    8.5640    1.8253   21.2521 O   0  0  0  0  0  0  0  0  0  0  0  0
    8.2550    0.4781   21.8352 C   0  0  0  0  0  0  0  0  0  0  0  0
    9.2224   -0.1695   22.7811 N   0  0  0  0  0  0  0  0  0  0  0  0
    8.9134   -1.5165   23.3642 C   0  0  0  0  0  0  0  0  0  0  0  0
    9.8808   -2.1641   24.3101 C   0  0  0  0  0  0  0  0  0  0  0  0
   11.1571   -1.4647   24.6730 C   0  0  0  0  0  0  0  0  0  0  0  0
   11.1940   -2.7581   25.4318 C   0  0  0  0  0  0  0  0  0  0  0  0
   12.5252   -2.3805   26.0107 C   0  0  0  0  0  0  0  0  0  0  0  0
   12.4884   -1.0871   25.2520 C   0  0  0  0  0  0  0  0  0  0  0  0
   11.4661   -0.1176   24.0899 C   0  0  0  0  0  0  0  0  0  0  0  0
   10.4988    0.5300   23.1440 C   0  0  0  0  0  0  0  0  0  0  0  0
    6.9787   -0.2213   21.4723 C   0  0  0  0  0  0  0  0  0  0  0  0
    6.2103    0.2035   20.2561 C   0  0  0  0  0  0  0  0  0  0  0  0
    6.7322   -0.1212   18.8879 C   0  0  0  0  0  0  0  0  0  0  0  0
    5.9638    0.3036   17.6717 N   0  0  0  0  0  0  0  0  0  0  0  0
    4.6734    1.0530   17.8238 C   0  0  0  0  0  0  0  0  0  0  0  0
    4.1514    1.3777   19.1921 C   0  0  0  0  0  0  0  0  0  0  0  0
    2.8609    2.1271   19.3441 C   0  0  0  0  0  0  0  0  0  0  0  0
    2.3390    2.4518   20.7124 C   0  0  0  0  0  0  0  0  0  0  0  0
    3.1074    2.0270   21.9285 C   0  0  0  0  0  0  0  0  0  0  0  0
    4.3978    1.2776   21.7765 C   0  0  0  0  0  0  0  0  0  0  0  0
    4.9198    0.9529   20.4082 C   0  0  0  0  0  0  0  0  0  0  0  0
  1  2  2  0  0  0
  2 12  1  0  0  0
 12 13  1  0  0  0
 13 14  2  0  0  0
 14 15  1  0  0  0
 15 16  2  0  0  0
 16 17  1  0  0  0
 17 18  2  0  0  0
 18 19  1  0  0  0
 19 20  2  0  0  0
 20 21  1  0  0  0
 21 22  2  0  0  0
  2  3  1  0  0  0
  3  4  1  0  0  0
  4  5  1  0  0  0
  5  6  1  0  0  0
  6  7  1  0  0  0
  7  8  1  0  0  0
  8  9  1  0  0  0
  6 10  1  0  0  0
 10 11  1  0  0  0
 22 13  1  0  0  0
 11  3  1  0  0  0
 22 17  1  0  0  0
  9  6  1  0  0  0
M  END
> <minimizedAffinity>
-7.88739

> <CNNscore>
0.7625024319

> <CNNaffinity>
5.6737318039

> <CNN_VS>
4.3262343407

> <CNNaffinity_variance>
0.1036369428

$$$$



 22 25  0  0  0  0  0  0  0  0999 V2000
    6.7168   -1.8780   21.9909 O   0  0  0  0  0  0  0  0  0  0  0  0
    7.8754   -0.9257   21.9577 C   0  0  0  0  0  0  0  0  0  0  0  0
    9.0921   -1.1955   22.7925 N   0  0  0  0  0  0  0  0  0  0  0  0
   10.2506   -0.2433   22.7594 C   0  0  0  0  0  0  0  0  0  0  0  0
   11.4672   -0.5131   23.5942 C   0  0  0  0  0  0  0  0  0  0  0  0
   11.5254   -1.7351   24.4621 C   0  0  0  0  0  0  0  0  0  0  0  0
   12.8350   -1.0383   24.6846 C   0  0  0  0  0  0  0  0  0  0  0  0
   13.2460   -2.1166   25.6427 C   0  0  0  0  0  0  0  0  0  0  0  0
   11.9365   -2.8135   25.4203 C   0  0  0  0  0  0  0  0  0  0  0  0
   10.3669   -2.6873   24.4953 C   0  0  0  0  0  0  0  0  0  0  0  0
    9.1502   -2.4176   23.6605 C   0  0  0  0  0  0  0  0  0  0  0  0
    7.8172    0.2963   21.0898 C   0  0  0  0  0  0  0  0  0  0  0  0
    6.7592    0.4162   20.0333 C   0  0  0  0  0  0  0  0  0  0  0  0
    6.8248   -0.4426   18.8053 C   0  0  0  0  0  0  0  0  0  0  0  0
    5.7668   -0.3228   17.7488 N   0  0  0  0  0  0  0  0  0  0  0  0
    4.6431    0.6560   17.9203 C   0  0  0  0  0  0  0  0  0  0  0  0
    4.5774    1.5148   19.1483 C   0  0  0  0  0  0  0  0  0  0  0  0
    3.4538    2.4936   19.3199 C   0  0  0  0  0  0  0  0  0  0  0  0
    3.3882    3.3524   20.5479 C   0  0  0  0  0  0  0  0  0  0  0  0
    4.4462    3.2325   21.6044 C   0  0  0  0  0  0  0  0  0  0  0  0
    5.5698    2.2538   21.4329 C   0  0  0  0  0  0  0  0  0  0  0  0
    5.6355    1.3950   20.2048 C   0  0  0  0  0  0  0  0  0  0  0  0
  1  2  2  0  0  0
  2 12  1  0  0  0
 12 13  1  0  0  0
 13 14  2  0  0  0
 14 15  1  0  0  0
 15 16  2  0  0  0
 16 17  1  0  0  0
 17 18  2  0  0  0
 18 19  1  0  0  0
 19 20  2  0  0  0
 20 21  1  0  0  0
 21 22  2  0  0  0
  2  3  1  0  0  0
  3  4  1  0  0  0
  4  5  1  0  0  0
  5  6  1  0  0  0
  6  7  1  0  0  0
  7  8  1  0  0  0
  8  9  1  0  0  0
  6 10  1  0  0  0
 10 11  1  0  0  0
 22 13  1  0  0  0
 11  3  1  0  0  0
 22 17  1  0  0  0
  9  6  1  0  0  0
M  END
> <minimizedAffinity>
-7.95499

> <CNNscore>
0.7257676125

> <CNNaffinity>
5.6215586662

> <CNN_VS>
4.0799450874

> <CNNaffinity_variance>
0.0819106773

$$$$



 22 25  0  0  0  0  0  0  0  0999 V2000
    8.2409   -0.8087   23.4642 O   0  0  0  0  0  0  0  0  0  0  0  0
    9.6722   -0.5129   23.1264 C   0  0  0  0  0  0  0  0  0  0  0  0
   10.1303    0.9081   22.9815 N   0  0  0  0  0  0  0  0  0  0  0  0
   11.5615    1.2039   22.6438 C   0  0  0  0  0  0  0  0  0  0  0  0
   12.0197    2.6249   22.4989 C   0  0  0  0  0  0  0  0  0  0  0  0
   11.0466    3.7500   22.6917 C   0  0  0  0  0  0  0  0  0  0  0  0
   12.3521    4.4162   22.3726 C   0  0  0  0  0  0  0  0  0  0  0  0
   11.6945    5.7595   22.4867 C   0  0  0  0  0  0  0  0  0  0  0  0
   10.3890    5.0934   22.8058 C   0  0  0  0  0  0  0  0  0  0  0  0
    9.6153    3.4542   23.0294 C   0  0  0  0  0  0  0  0  0  0  0  0
    9.1572    2.0332   23.1743 C   0  0  0  0  0  0  0  0  0  0  0  0
   10.6452   -1.6380   22.9336 C   0  0  0  0  0  0  0  0  0  0  0  0
   11.5096   -2.0859   24.0748 C   0  0  0  0  0  0  0  0  0  0  0  0
   12.9924   -1.8654   24.0241 C   0  0  0  0  0  0  0  0  0  0  0  0
   13.8567   -2.3133   25.1653 N   0  0  0  0  0  0  0  0  0  0  0  0
   13.2382   -2.9818   26.3571 C   0  0  0  0  0  0  0  0  0  0  0  0
   11.7554   -3.2024   26.4079 C   0  0  0  0  0  0  0  0  0  0  0  0
   11.1369   -3.8709   27.5997 C   0  0  0  0  0  0  0  0  0  0  0  0
    9.6541   -4.0915   27.6504 C   0  0  0  0  0  0  0  0  0  0  0  0
    8.7898   -3.6436   26.5092 C   0  0  0  0  0  0  0  0  0  0  0  0
    9.4082   -2.9751   25.3173 C   0  0  0  0  0  0  0  0  0  0  0  0
   10.8910   -2.7545   25.2667 C   0  0  0  0  0  0  0  0  0  0  0  0
  1  2  2  0  0  0
  2 12  1  0  0  0
 12 13  1  0  0  0
 13 14  2  0  0  0
 14 15  1  0  0  0
 15 16  2  0  0  0
 16 17  1  0  0  0
 17 18  2  0  0  0
 18 19  1  0  0  0
 19 20  2  0  0  0
 20 21  1  0  0  0
 21 22  2  0  0  0
  2  3  1  0  0  0
  3  4  1  0  0  0
  4  5  1  0  0  0
  5  6  1  0  0  0
  6  7  1  0  0  0
  7  8  1  0  0  0
  8  9  1  0  0  0
  6 10  1  0  0  0
 10 11  1  0  0  0
 22 13  1  0  0  0
 11  3  1  0  0  0
 22 17  1  0  0  0
  9  6  1  0  0  0
M  END
> <minimizedAffinity>
-6.99311

> <CNNscore>
0.7073762417

> <CNNaffinity>
5.8168001175

> <CNN_VS>
4.1146659851

> <CNNaffinity_variance>
0.0985420495

$$$$



 22 25  0  0  0  0  0  0  0  0999 V2000
    7.2624   -0.4582   22.8797 O   0  0  0  0  0  0  0  0  0  0  0  0
    8.7462   -0.2936   22.7334 C   0  0  0  0  0  0  0  0  0  0  0  0
    9.3550    1.0771   22.7607 N   0  0  0  0  0  0  0  0  0  0  0  0
   10.8387    1.2418   22.6145 C   0  0  0  0  0  0  0  0  0  0  0  0
   11.4475    2.6124   22.6419 C   0  0  0  0  0  0  0  0  0  0  0  0
   10.5725    3.8184   22.8154 C   0  0  0  0  0  0  0  0  0  0  0  0
   11.9659    4.3625   22.7042 C   0  0  0  0  0  0  0  0  0  0  0  0
   11.4334    5.7567   22.8541 C   0  0  0  0  0  0  0  0  0  0  0  0
   10.0400    5.2127   22.9653 C   0  0  0  0  0  0  0  0  0  0  0  0
    9.0887    3.6537   22.9617 C   0  0  0  0  0  0  0  0  0  0  0  0
    8.4799    2.2831   22.9343 C   0  0  0  0  0  0  0  0  0  0  0  0
    9.6211   -1.4995   22.5599 C   0  0  0  0  0  0  0  0  0  0  0  0
    9.7546   -2.4958   23.6732 C   0  0  0  0  0  0  0  0  0  0  0  0
    8.6522   -3.4784   23.9365 C   0  0  0  0  0  0  0  0  0  0  0  0
    8.7857   -4.4747   25.0498 N   0  0  0  0  0  0  0  0  0  0  0  0
   10.0214   -4.4885   25.8999 C   0  0  0  0  0  0  0  0  0  0  0  0
   11.1238   -3.5058   25.6366 C   0  0  0  0  0  0  0  0  0  0  0  0
   12.3596   -3.5196   26.4867 C   0  0  0  0  0  0  0  0  0  0  0  0
   13.4619   -2.5370   26.2234 C   0  0  0  0  0  0  0  0  0  0  0  0
   13.3285   -1.5407   25.1101 C   0  0  0  0  0  0  0  0  0  0  0  0
   12.0927   -1.5269   24.2600 C   0  0  0  0  0  0  0  0  0  0  0  0
   10.9904   -2.5095   24.5233 C   0  0  0  0  0  0  0  0  0  0  0  0
  1  2  2  0  0  0
  2 12  1  0  0  0
 12 13  1  0  0  0
 13 14  2  0  0  0
 14 15  1  0  0  0
 15 16  2  0  0  0
 16 17  1  0  0  0
 17 18  2  0  0  0
 18 19  1  0  0  0
 19 20  2  0  0  0
 20 21  1  0  0  0
 21 22  2  0  0  0
  2  3  1  0  0  0
  3  4  1  0  0  0
  4  5  1  0  0  0
  5  6  1  0  0  0
  6  7  1  0  0  0
  7  8  1  0  0  0
  8  9  1  0  0  0
  6 10  1  0  0  0
 10 11  1  0  0  0
 22 13  1  0  0  0
 11  3  1  0  0  0
 22 17  1  0  0  0
  9  6  1  0  0  0
M  END
> <minimizedAffinity>
-7.14776

> <CNNscore>
0.5365318656

> <CNNaffinity>
5.7224507332

> <CNN_VS>
3.0702772141

> <CNNaffinity_variance>
0.0805461705

$$$$



 22 25  0  0  0  0  0  0  0  0999 V2000
    6.0073   -2.8327   22.7136 O   0  0  0  0  0  0  0  0  0  0  0  0
    6.7281   -1.5203   22.8044 C   0  0  0  0  0  0  0  0  0  0  0  0
    8.1460   -1.4756   23.2917 N   0  0  0  0  0  0  0  0  0  0  0  0
    8.8668   -0.1632   23.3826 C   0  0  0  0  0  0  0  0  0  0  0  0
   10.2847   -0.1185   23.8698 C   0  0  0  0  0  0  0  0  0  0  0  0
   10.9819   -1.3860   24.2663 C   0  0  0  0  0  0  0  0  0  0  0  0
   11.9942   -0.3012   24.4861 C   0  0  0  0  0  0  0  0  0  0  0  0
   12.9871   -1.3227   24.9554 C   0  0  0  0  0  0  0  0  0  0  0  0
   11.9749   -2.4077   24.7356 C   0  0  0  0  0  0  0  0  0  0  0  0
   10.2611   -2.6984   24.1754 C   0  0  0  0  0  0  0  0  0  0  0  0
    8.8432   -2.7432   23.6881 C   0  0  0  0  0  0  0  0  0  0  0  0
    6.0309   -0.2528   22.4080 C   0  0  0  0  0  0  0  0  0  0  0  0
    5.8687    0.0918   20.9571 C   0  0  0  0  0  0  0  0  0  0  0  0
    6.9000   -0.3499   19.9615 C   0  0  0  0  0  0  0  0  0  0  0  0
    6.7378   -0.0053   18.5107 N   0  0  0  0  0  0  0  0  0  0  0  0
    5.5444    0.7810   18.0555 C   0  0  0  0  0  0  0  0  0  0  0  0
    4.5130    1.2228   19.0511 C   0  0  0  0  0  0  0  0  0  0  0  0
    3.3195    2.0091   18.5958 C   0  0  0  0  0  0  0  0  0  0  0  0
    2.2882    2.4508   19.5914 C   0  0  0  0  0  0  0  0  0  0  0  0
    2.4504    2.1062   21.0423 C   0  0  0  0  0  0  0  0  0  0  0  0
    3.6439    1.3199   21.4975 C   0  0  0  0  0  0  0  0  0  0  0  0
    4.6752    0.8782   20.5019 C   0  0  0  0  0  0  0  0  0  0  0  0
  1  2  2  0  0  0
  2 12  1  0  0  0
 12 13  1  0  0  0
 13 14  2  0  0  0
 14 15  1  0  0  0
 15 16  2  0  0  0
 16 17  1  0  0  0
 17 18  2  0  0  0
 18 19  1  0  0  0
 19 20  2  0  0  0
 20 21  1  0  0  0
 21 22  2  0  0  0
  2  3  1  0  0  0
  3  4  1  0  0  0
  4  5  1  0  0  0
  5  6  1  0  0  0
  6  7  1  0  0  0
  7  8  1  0  0  0
  8  9  1  0  0  0
  6 10  1  0  0  0
 10 11  1  0  0  0
 22 13  1  0  0  0
 11  3  1  0  0  0
 22 17  1  0  0  0
  9  6  1  0  0  0
M  END
> <minimizedAffinity>
-7.41490

> <CNNscore>
0.5345929861

> <CNNaffinity>
5.4083147049

> <CNN_VS>
2.8912470341

> <CNNaffinity_variance>
0.0557056554

$$$$



 22 25  0  0  0  0  0  0  0  0999 V2000
    8.1567   -0.1717   24.2893 O   0  0  0  0  0  0  0  0  0  0  0  0
    8.3732   -0.5632   22.8575 C   0  0  0  0  0  0  0  0  0  0  0  0
    7.4131   -0.1032   21.8008 N   0  0  0  0  0  0  0  0  0  0  0  0
    7.6296   -0.4946   20.3691 C   0  0  0  0  0  0  0  0  0  0  0  0
    6.6694   -0.0346   19.3124 C   0  0  0  0  0  0  0  0  0  0  0  0
    5.4928    0.8168   19.6875 C   0  0  0  0  0  0  0  0  0  0  0  0
    5.3826    0.6347   18.2027 C   0  0  0  0  0  0  0  0  0  0  0  0
    4.1350    1.4673   18.1931 C   0  0  0  0  0  0  0  0  0  0  0  0
    4.2452    1.6495   19.6779 C   0  0  0  0  0  0  0  0  0  0  0  0
    5.2764    1.2083   21.1193 C   0  0  0  0  0  0  0  0  0  0  0  0
    6.2365    0.7483   22.1759 C   0  0  0  0  0  0  0  0  0  0  0  0
    9.5498   -1.4146   22.4824 C   0  0  0  0  0  0  0  0  0  0  0  0
   10.7702   -1.4335   23.3544 C   0  0  0  0  0  0  0  0  0  0  0  0
   11.8867   -0.4640   23.1030 C   0  0  0  0  0  0  0  0  0  0  0  0
   13.1071   -0.4830   23.9750 N   0  0  0  0  0  0  0  0  0  0  0  0
   13.2110   -1.4715   25.0983 C   0  0  0  0  0  0  0  0  0  0  0  0
   12.0944   -2.4412   25.3497 C   0  0  0  0  0  0  0  0  0  0  0  0
   12.1983   -3.4297   26.4731 C   0  0  0  0  0  0  0  0  0  0  0  0
   11.0817   -4.3993   26.7244 C   0  0  0  0  0  0  0  0  0  0  0  0
    9.8614   -4.3803   25.8525 C   0  0  0  0  0  0  0  0  0  0  0  0
    9.7575   -3.3918   24.7291 C   0  0  0  0  0  0  0  0  0  0  0  0
   10.8740   -2.4222   24.4778 C   0  0  0  0  0  0  0  0  0  0  0  0
  1  2  2  0  0  0
  2 12  1  0  0  0
 12 13  1  0  0  0
 13 14  2  0  0  0
 14 15  1  0  0  0
 15 16  2  0  0  0
 16 17  1  0  0  0
 17 18  2  0  0  0
 18 19  1  0  0  0
 19 20  2  0  0  0
 20 21  1  0  0  0
 21 22  2  0  0  0
  2  3  1  0  0  0
  3  4  1  0  0  0
  4  5  1  0  0  0
  5  6  1  0  0  0
  6  7  1  0  0  0
  7  8  1  0  0  0
  8  9  1  0  0  0
  6 10  1  0  0  0
 10 11  1  0  0  0
 22 13  1  0  0  0
 11  3  1  0  0  0
 22 17  1  0  0  0
  9  6  1  0  0  0
M  END
> <minimizedAffinity>
-8.13628

> <CNNscore>
0.4963575602

> <CNNaffinity>
5.4293460846

> <CNN_VS>
2.6948969364

> <CNNaffinity_variance>
0.0413025059

$$$$



 22 25  0  0  0  0  0  0  0  0999 V2000
    6.4731    0.0527   23.6453 O   0  0  0  0  0  0  0  0  0  0  0  0
    7.7886    0.3622   22.9944 C   0  0  0  0  0  0  0  0  0  0  0  0
    9.0630   -0.1486   23.5986 N   0  0  0  0  0  0  0  0  0  0  0  0
   10.3785    0.1608   22.9478 C   0  0  0  0  0  0  0  0  0  0  0  0
   11.6528   -0.3500   23.5520 C   0  0  0  0  0  0  0  0  0  0  0  0
   11.6116   -1.1702   24.8072 C   0  0  0  0  0  0  0  0  0  0  0  0
   13.0666   -1.0703   24.4564 C   0  0  0  0  0  0  0  0  0  0  0  0
   13.4138   -1.8926   25.6617 C   0  0  0  0  0  0  0  0  0  0  0  0
   11.9589   -1.9927   26.0127 C   0  0  0  0  0  0  0  0  0  0  0  0
   10.2961   -1.4797   25.4581 C   0  0  0  0  0  0  0  0  0  0  0  0
    9.0218   -0.9689   24.8539 C   0  0  0  0  0  0  0  0  0  0  0  0
    7.8298    1.1825   21.7392 C   0  0  0  0  0  0  0  0  0  0  0  0
    6.9407    0.8303   20.5836 C   0  0  0  0  0  0  0  0  0  0  0  0
    7.3248   -0.2821   19.6536 C   0  0  0  0  0  0  0  0  0  0  0  0
    6.4357   -0.6343   18.4980 N   0  0  0  0  0  0  0  0  0  0  0  0
    5.1625    0.1260   18.2724 C   0  0  0  0  0  0  0  0  0  0  0  0
    4.7783    1.2384   19.2024 C   0  0  0  0  0  0  0  0  0  0  0  0
    3.5051    1.9986   18.9768 C   0  0  0  0  0  0  0  0  0  0  0  0
    3.1210    3.1110   19.9069 C   0  0  0  0  0  0  0  0  0  0  0  0
    4.0101    3.4632   21.0625 C   0  0  0  0  0  0  0  0  0  0  0  0
    5.2833    2.7030   21.2881 C   0  0  0  0  0  0  0  0  0  0  0  0
    5.6674    1.5906   20.3581 C   0  0  0  0  0  0  0  0  0  0  0  0
  1  2  2  0  0  0
  2 12  1  0  0  0
 12 13  1  0  0  0
 13 14  2  0  0  0
 14 15  1  0  0  0
 15 16  2  0  0  0
 16 17  1  0  0  0
 17 18  2  0  0  0
 18 19  1  0  0  0
 19 20  2  0  0  0
 20 21  1  0  0  0
 21 22  2  0  0  0
  2  3  1  0  0  0
  3  4  1  0  0  0
  4  5  1  0  0  0
  5  6  1  0  0  0
  6  7  1  0  0  0
  7  8  1  0  0  0
  8  9  1  0  0  0
  6 10  1  0  0  0
 10 11  1  0  0  0
 22 13  1  0  0  0
 11  3  1  0  0  0
 22 17  1  0  0  0
  9  6  1  0  0  0
M  END
> <minimizedAffinity>
-7.79665

> <CNNscore>
0.4655842781

> <CNNaffinity>
5.3947815895

> <CNN_VS>
2.5117254257

> <CNNaffinity_variance>
0.0599985532

$$$$



 22 25  0  0  0  0  0  0  0  0999 V2000
    7.4533   -0.8617   23.8649 O   0  0  0  0  0  0  0  0  0  0  0  0
    7.8295   -2.2925   23.6168 C   0  0  0  0  0  0  0  0  0  0  0  0
    6.9570   -3.3978   24.1335 N   0  0  0  0  0  0  0  0  0  0  0  0
    7.3332   -4.8285   23.8854 C   0  0  0  0  0  0  0  0  0  0  0  0
    6.4607   -5.9338   24.4021 C   0  0  0  0  0  0  0  0  0  0  0  0
    5.2120   -5.6085   25.1668 C   0  0  0  0  0  0  0  0  0  0  0  0
    5.2583   -7.1070   25.1187 C   0  0  0  0  0  0  0  0  0  0  0  0
    3.9781   -7.1717   25.8975 C   0  0  0  0  0  0  0  0  0  0  0  0
    3.9316   -5.6732   25.9457 C   0  0  0  0  0  0  0  0  0  0  0  0
    4.8358   -4.1777   25.4149 C   0  0  0  0  0  0  0  0  0  0  0  0
    5.7083   -3.0724   24.8982 C   0  0  0  0  0  0  0  0  0  0  0  0
    9.0782   -2.6178   22.8520 C   0  0  0  0  0  0  0  0  0  0  0  0
   10.3376   -1.8442   23.1081 C   0  0  0  0  0  0  0  0  0  0  0  0
   10.7227   -0.7158   22.1980 C   0  0  0  0  0  0  0  0  0  0  0  0
   11.9821    0.0578   22.4540 N   0  0  0  0  0  0  0  0  0  0  0  0
   12.8562   -0.2970   23.6202 C   0  0  0  0  0  0  0  0  0  0  0  0
   12.4711   -1.4254   24.5304 C   0  0  0  0  0  0  0  0  0  0  0  0
   13.3452   -1.7802   25.6965 C   0  0  0  0  0  0  0  0  0  0  0  0
   12.9600   -2.9085   26.6066 C   0  0  0  0  0  0  0  0  0  0  0  0
   11.7007   -3.6822   26.3506 C   0  0  0  0  0  0  0  0  0  0  0  0
   10.8265   -3.3274   25.1844 C   0  0  0  0  0  0  0  0  0  0  0  0
   11.2117   -2.1990   24.2743 C   0  0  0  0  0  0  0  0  0  0  0  0
  1  2  2  0  0  0
  2 12  1  0  0  0
 12 13  1  0  0  0
 13 14  2  0  0  0
 14 15  1  0  0  0
 15 16  2  0  0  0
 16 17  1  0  0  0
 17 18  2  0  0  0
 18 19  1  0  0  0
 19 20  2  0  0  0
 20 21  1  0  0  0
 21 22  2  0  0  0
  2  3  1  0  0  0
  3  4  1  0  0  0
  4  5  1  0  0  0
  5  6  1  0  0  0
  6  7  1  0  0  0
  7  8  1  0  0  0
  8  9  1  0  0  0
  6 10  1  0  0  0
 10 11  1  0  0  0
 22 13  1  0  0  0
 11  3  1  0  0  0
 22 17  1  0  0  0
  9  6  1  0  0  0
M  END
> <minimizedAffinity>
-6.93324

> <CNNscore>
0.4582277238

> <CNNaffinity>
5.5031542778

> <CNN_VS>
2.5216977596

> <CNNaffinity_variance>
0.0746090263

$$$$



 22 25  0  0  0  0  0  0  0  0999 V2000
    6.8929   -1.7126   24.7225 O   0  0  0  0  0  0  0  0  0  0  0  0
    7.4794   -1.6950   23.3419 C   0  0  0  0  0  0  0  0  0  0  0  0
    6.7541   -1.0003   22.2278 N   0  0  0  0  0  0  0  0  0  0  0  0
    7.3405   -0.9827   20.8473 C   0  0  0  0  0  0  0  0  0  0  0  0
    6.6152   -0.2880   19.7331 C   0  0  0  0  0  0  0  0  0  0  0  0
    5.3035    0.3890   19.9994 C   0  0  0  0  0  0  0  0  0  0  0  0
    5.5655    0.6111   18.5393 C   0  0  0  0  0  0  0  0  0  0  0  0
    4.2778    1.3715   18.4238 C   0  0  0  0  0  0  0  0  0  0  0  0
    4.0156    1.1495   19.8839 C   0  0  0  0  0  0  0  0  0  0  0  0
    4.7170    0.3714   21.3800 C   0  0  0  0  0  0  0  0  0  0  0  0
    5.4423   -0.3232   22.4941 C   0  0  0  0  0  0  0  0  0  0  0  0
    8.7911   -2.3721   23.0756 C   0  0  0  0  0  0  0  0  0  0  0  0
   10.0761   -1.6287   23.2907 C   0  0  0  0  0  0  0  0  0  0  0  0
   10.4091   -0.4432   22.4343 C   0  0  0  0  0  0  0  0  0  0  0  0
   11.6941    0.3001   22.6494 N   0  0  0  0  0  0  0  0  0  0  0  0
   12.6461   -0.1421   23.7208 C   0  0  0  0  0  0  0  0  0  0  0  0
   12.3131   -1.3277   24.5773 C   0  0  0  0  0  0  0  0  0  0  0  0
   13.2650   -1.7699   25.6488 C   0  0  0  0  0  0  0  0  0  0  0  0
   12.9320   -2.9555   26.5053 C   0  0  0  0  0  0  0  0  0  0  0  0
   11.6470   -3.6988   26.2902 C   0  0  0  0  0  0  0  0  0  0  0  0
   10.6950   -3.2566   25.2187 C   0  0  0  0  0  0  0  0  0  0  0  0
   11.0281   -2.0710   24.3623 C   0  0  0  0  0  0  0  0  0  0  0  0
  1  2  2  0  0  0
  2 12  1  0  0  0
 12 13  1  0  0  0
 13 14  2  0  0  0
 14 15  1  0  0  0
 15 16  2  0  0  0
 16 17  1  0  0  0
 17 18  2  0  0  0
 18 19  1  0  0  0
 19 20  2  0  0  0
 20 21  1  0  0  0
 21 22  2  0  0  0
  2  3  1  0  0  0
  3  4  1  0  0  0
  4  5  1  0  0  0
  5  6  1  0  0  0
  6  7  1  0  0  0
  7  8  1  0  0  0
  8  9  1  0  0  0
  6 10  1  0  0  0
 10 11  1  0  0  0
 22 13  1  0  0  0
 11  3  1  0  0  0
 22 17  1  0  0  0
  9  6  1  0  0  0
M  END
> <minimizedAffinity>
-7.71006

> <CNNscore>
0.4317177832

> <CNNaffinity>
5.3822259903

> <CNN_VS>
2.3236026764

> <CNNaffinity_variance>
0.0737124011

$$$$
