


 38 42  0  0  0  0  0  0  0  0999 V2000
    5.0880    1.4221   22.2644 N   0  0  0  0  0  0  0  0  0  0  0  0
    6.4184    0.7514   22.4386 C   0  0  0  0  0  0  0  0  0  0  0  0
    6.6769   -0.0994   23.6466 C   0  0  0  0  0  0  0  0  0  0  0  0
    7.0790   -0.9752   24.7961 C   0  0  0  0  0  0  0  0  0  0  0  0
    6.6244   -1.4183   25.8321 O   0  0  0  0  0  0  0  0  0  0  0  0
    8.4894   -1.4290   24.5619 N   0  0  0  0  0  0  0  0  0  0  0  0
    8.9590   -0.8338   23.2676 C   0  0  0  0  0  0  0  0  0  0  0  0
    7.8388   -0.0120   22.7019 C   0  0  0  0  0  0  0  0  0  0  0  0
    5.6050   -0.2796   24.6804 C   0  0  0  0  0  0  0  0  0  0  0  0
    5.8636   -1.1304   25.8884 C   0  0  0  0  0  0  0  0  0  0  0  0
    4.7917   -1.3106   26.9221 C   0  0  0  0  0  0  0  0  0  0  0  0
    5.0502   -2.1615   28.1301 Cl  0  0  0  0  0  0  0  0  0  0  0  0
    3.4613   -0.6400   26.7479 C   0  0  0  0  0  0  0  0  0  0  0  0
    3.2028    0.2108   25.5399 C   0  0  0  0  0  0  0  0  0  0  0  0
    4.2747    0.3910   24.5062 C   0  0  0  0  0  0  0  0  0  0  0  0
    4.0162    1.2419   23.2981 C   0  0  0  0  0  0  0  0  0  0  0  0
    2.6858    1.9125   23.1239 O   0  0  0  0  0  0  0  0  0  0  0  0
    9.2896   -2.3215   25.4636 C   0  0  0  0  0  0  0  0  0  0  0  0
    8.5957   -3.3376   26.3215 C   0  0  0  0  0  0  0  0  0  0  0  0
    9.3959   -4.2300   27.2232 N   0  0  0  0  0  0  0  0  0  0  0  0
   10.8901   -4.1064   27.2671 C   0  0  0  0  0  0  0  0  0  0  0  0
   11.5841   -3.0902   26.4092 C   0  0  0  0  0  0  0  0  0  0  0  0
   13.0784   -2.9666   26.4531 C   0  0  0  0  0  0  0  0  0  0  0  0
   13.7723   -1.9504   25.5952 C   0  0  0  0  0  0  0  0  0  0  0  0
   12.9721   -1.0580   24.6934 C   0  0  0  0  0  0  0  0  0  0  0  0
   11.4778   -1.1817   24.6496 C   0  0  0  0  0  0  0  0  0  0  0  0
   10.7839   -2.1978   25.5075 C   0  0  0  0  0  0  0  0  0  0  0  0
    4.8295    2.2729   21.0563 C   0  0  0  0  0  0  0  0  0  0  0  0
    4.9246    0.4404   17.5374 C   0  0  0  0  0  0  0  0  0  0  0  0
    5.3806    1.0748   18.8179 N   0  0  0  0  0  0  0  0  0  0  0  0
    4.3735    1.6385   19.7759 C   0  0  0  0  0  0  0  0  0  0  0  0
    2.9102    1.5679   19.4534 O   0  0  0  0  0  0  0  0  0  0  0  0
    6.3410    1.1212   19.0295 H   0  0  0  0  0  0  0  0  0  0  0  0
    7.8743    0.7613   21.4172 C   0  0  0  0  0  0  0  0  0  0  0  0
    8.7558    1.9685   21.2924 O   0  0  0  0  0  0  0  0  0  0  0  0
    9.3273    2.6101   22.5219 C   0  0  0  0  0  0  0  0  0  0  0  0
    8.5076    3.5919   23.3056 C   0  0  0  0  0  0  0  0  0  0  0  0
   10.7186    2.2700   22.9678 C   0  0  0  0  0  0  0  0  0  0  0  0
 29 30  1  0  0  0
 30 31  1  0  0  0
 31 32  2  0  0  0
 31 28  1  0  0  0
 28  1  1  0  0  0
  1  2  1  0  0  0
  3  2  1  0  0  0
  3  4  1  0  0  0
  4  5  2  0  0  0
  4  6  1  0  0  0
  6 18  1  0  0  0
 18 19  2  0  0  0
 19 20  1  0  0  0
 20 21  2  0  0  0
 21 22  1  0  0  0
 22 23  2  0  0  0
 23 24  1  0  0  0
 24 25  2  0  0  0
 25 26  1  0  0  0
 26 27  2  0  0  0
  6  7  1  0  0  0
  7  8  1  0  0  0
  8 34  1  0  0  0
 34 35  1  0  0  0
 35 36  1  0  0  0
 36 37  1  0  0  0
 36 38  1  0  0  0
  3  9  1  0  0  0
  9 10  2  0  0  0
 10 11  1  0  0  0
 11 12  1  0  0  0
 11 13  2  0  0  0
 13 14  1  0  0  0
 14 15  2  0  0  0
 15 16  1  0  0  0
 16 17  2  0  0  0
 16  1  1  0  0  0
  8  3  1  0  0  0
 15  9  1  0  0  0
 27 18  1  0  0  0
 27 22  1  0  0  0
 30 33  1  0  0  0
M  END
> <minimizedAffinity>
-7.56397

> <CNNscore>
0.3865929246

> <CNNaffinity>
6.6299057007

> <CNN_VS>
2.5630745888

> <CNNaffinity_variance>
0.0355384313

$$$$



 38 42  0  0  0  0  0  0  0  0999 V2000
    8.1836    4.5921   23.4676 N   0  0  0  0  0  0  0  0  0  0  0  0
    7.5601    3.3001   23.9058 C   0  0  0  0  0  0  0  0  0  0  0  0
    8.3586    2.0310   23.8674 C   0  0  0  0  0  0  0  0  0  0  0  0
    9.0294    0.6894   23.8845 C   0  0  0  0  0  0  0  0  0  0  0  0
   10.1006    0.1809   23.6196 O   0  0  0  0  0  0  0  0  0  0  0  0
    8.0402   -0.3170   24.3932 N   0  0  0  0  0  0  0  0  0  0  0  0
    6.7581    0.4026   24.6904 C   0  0  0  0  0  0  0  0  0  0  0  0
    6.9549    1.8537   24.3655 C   0  0  0  0  0  0  0  0  0  0  0  0
    9.7808    2.0537   23.3909 C   0  0  0  0  0  0  0  0  0  0  0  0
   10.5794    0.7846   23.3526 C   0  0  0  0  0  0  0  0  0  0  0  0
   12.0014    0.8074   22.8760 C   0  0  0  0  0  0  0  0  0  0  0  0
   12.8001   -0.4618   22.8377 Cl  0  0  0  0  0  0  0  0  0  0  0  0
   12.6250    2.0994   22.4378 C   0  0  0  0  0  0  0  0  0  0  0  0
   11.8264    3.3685   22.4761 C   0  0  0  0  0  0  0  0  0  0  0  0
   10.4043    3.3457   22.9527 C   0  0  0  0  0  0  0  0  0  0  0  0
    9.6057    4.6149   22.9910 C   0  0  0  0  0  0  0  0  0  0  0  0
   10.2292    5.9069   22.5528 O   0  0  0  0  0  0  0  0  0  0  0  0
    8.2894   -1.7852   24.5729 C   0  0  0  0  0  0  0  0  0  0  0  0
    7.2855   -2.7827   24.0759 C   0  0  0  0  0  0  0  0  0  0  0  0
    7.5347   -4.2509   24.2557 N   0  0  0  0  0  0  0  0  0  0  0  0
    8.7878   -4.7216   24.9325 C   0  0  0  0  0  0  0  0  0  0  0  0
    9.7918   -3.7240   25.4295 C   0  0  0  0  0  0  0  0  0  0  0  0
   11.0450   -4.1947   26.1064 C   0  0  0  0  0  0  0  0  0  0  0  0
   12.0488   -3.1971   26.6034 C   0  0  0  0  0  0  0  0  0  0  0  0
   11.7996   -1.7289   26.4236 C   0  0  0  0  0  0  0  0  0  0  0  0
   10.5465   -1.2583   25.7468 C   0  0  0  0  0  0  0  0  0  0  0  0
    9.5425   -2.2558   25.2498 C   0  0  0  0  0  0  0  0  0  0  0  0
    7.3850    5.8613   23.5059 C   0  0  0  0  0  0  0  0  0  0  0  0
    5.8962    7.8248   20.3949 C   0  0  0  0  0  0  0  0  0  0  0  0
    6.7820    7.4609   21.5495 N   0  0  0  0  0  0  0  0  0  0  0  0
    6.4992    6.2252   22.3513 C   0  0  0  0  0  0  0  0  0  0  0  0
    5.3306    5.3533   21.9987 O   0  0  0  0  0  0  0  0  0  0  0  0
    7.5490    8.0331   21.7809 H   0  0  0  0  0  0  0  0  0  0  0  0
    5.9282    2.9373   24.5128 C   0  0  0  0  0  0  0  0  0  0  0  0
    4.6086    2.8208   23.8094 O   0  0  0  0  0  0  0  0  0  0  0  0
    4.0576    1.4682   23.4676 C   0  0  0  0  0  0  0  0  0  0  0  0
    4.3518    0.8544   22.1309 C   0  0  0  0  0  0  0  0  0  0  0  0
    3.2124    0.7294   24.4625 C   0  0  0  0  0  0  0  0  0  0  0  0
 29 30  1  0  0  0
 30 31  1  0  0  0
 31 32  2  0  0  0
 31 28  1  0  0  0
 28  1  1  0  0  0
  1  2  1  0  0  0
  3  2  1  0  0  0
  3  4  1  0  0  0
  4  5  2  0  0  0
  4  6  1  0  0  0
  6 18  1  0  0  0
 18 19  2  0  0  0
 19 20  1  0  0  0
 20 21  2  0  0  0
 21 22  1  0  0  0
 22 23  2  0  0  0
 23 24  1  0  0  0
 24 25  2  0  0  0
 25 26  1  0  0  0
 26 27  2  0  0  0
  6  7  1  0  0  0
  7  8  1  0  0  0
  8 34  1  0  0  0
 34 35  1  0  0  0
 35 36  1  0  0  0
 36 37  1  0  0  0
 36 38  1  0  0  0
  3  9  1  0  0  0
  9 10  2  0  0  0
 10 11  1  0  0  0
 11 12  1  0  0  0
 11 13  2  0  0  0
 13 14  1  0  0  0
 14 15  2  0  0  0
 15 16  1  0  0  0
 16 17  2  0  0  0
 16  1  1  0  0  0
  8  3  1  0  0  0
 15  9  1  0  0  0
 27 18  1  0  0  0
 27 22  1  0  0  0
 30 33  1  0  0  0
M  END
> <minimizedAffinity>
-7.08058

> <CNNscore>
0.3646599650

> <CNNaffinity>
6.6300201416

> <CNN_VS>
2.4177029133

> <CNNaffinity_variance>
0.0851946175

$$$$



 38 42  0  0  0  0  0  0  0  0999 V2000
    6.2546    1.1306   21.3191 N   0  0  0  0  0  0  0  0  0  0  0  0
    7.5835    1.1502   22.0145 C   0  0  0  0  0  0  0  0  0  0  0  0
    8.1388   -0.1111   22.6068 C   0  0  0  0  0  0  0  0  0  0  0  0
    8.8179   -1.2870   23.2440 C   0  0  0  0  0  0  0  0  0  0  0  0
    8.6409   -2.4741   23.4330 O   0  0  0  0  0  0  0  0  0  0  0  0
   10.1208   -0.8148   23.8181 N   0  0  0  0  0  0  0  0  0  0  0  0
   10.2469    0.6530   23.5356 C   0  0  0  0  0  0  0  0  0  0  0  0
    9.0220    1.0879   22.7870 C   0  0  0  0  0  0  0  0  0  0  0  0
    7.3650   -1.3920   22.5037 C   0  0  0  0  0  0  0  0  0  0  0  0
    7.9203   -2.6533   23.0960 C   0  0  0  0  0  0  0  0  0  0  0  0
    7.1466   -3.9342   22.9929 C   0  0  0  0  0  0  0  0  0  0  0  0
    7.7018   -5.1956   23.5852 Cl  0  0  0  0  0  0  0  0  0  0  0  0
    5.8176   -3.9538   22.2976 C   0  0  0  0  0  0  0  0  0  0  0  0
    5.2624   -2.6925   21.7053 C   0  0  0  0  0  0  0  0  0  0  0  0
    6.0361   -1.4116   21.8084 C   0  0  0  0  0  0  0  0  0  0  0  0
    5.4809   -0.1503   21.2161 C   0  0  0  0  0  0  0  0  0  0  0  0
    4.1519   -0.1699   20.5207 O   0  0  0  0  0  0  0  0  0  0  0  0
   11.1217   -1.6617   24.5467 C   0  0  0  0  0  0  0  0  0  0  0  0
   12.5582   -1.6637   24.1148 C   0  0  0  0  0  0  0  0  0  0  0  0
   13.5592   -2.5106   24.8434 N   0  0  0  0  0  0  0  0  0  0  0  0
   13.1237   -3.3554   26.0038 C   0  0  0  0  0  0  0  0  0  0  0  0
   11.6871   -3.3534   26.4356 C   0  0  0  0  0  0  0  0  0  0  0  0
   11.2516   -4.1982   27.5961 C   0  0  0  0  0  0  0  0  0  0  0  0
    9.8151   -4.1961   28.0279 C   0  0  0  0  0  0  0  0  0  0  0  0
    8.8141   -3.3492   27.2993 C   0  0  0  0  0  0  0  0  0  0  0  0
    9.2497   -2.5044   26.1389 C   0  0  0  0  0  0  0  0  0  0  0  0
   10.6862   -2.5065   25.7071 C   0  0  0  0  0  0  0  0  0  0  0  0
    5.6994    2.3920   20.7268 C   0  0  0  0  0  0  0  0  0  0  0  0
    1.9713    2.7037   19.4024 C   0  0  0  0  0  0  0  0  0  0  0  0
    3.1615    2.7635   20.3134 N   0  0  0  0  0  0  0  0  0  0  0  0
    4.5092    2.3322   19.8158 C   0  0  0  0  0  0  0  0  0  0  0  0
    4.6668    1.8411   18.4073 O   0  0  0  0  0  0  0  0  0  0  0  0
    3.0580    3.0858   21.2378 H   0  0  0  0  0  0  0  0  0  0  0  0
    8.7313    2.4778   22.3035 C   0  0  0  0  0  0  0  0  0  0  0  0
    9.2112    3.6612   23.0902 O   0  0  0  0  0  0  0  0  0  0  0  0
   10.4674    4.3728   22.6834 C   0  0  0  0  0  0  0  0  0  0  0  0
   11.5799    3.6129   22.0240 C   0  0  0  0  0  0  0  0  0  0  0  0
   10.6112    5.8444   22.9360 C   0  0  0  0  0  0  0  0  0  0  0  0
 29 30  1  0  0  0
 30 31  1  0  0  0
 31 32  2  0  0  0
 31 28  1  0  0  0
 28  1  1  0  0  0
  1  2  1  0  0  0
  3  2  1  0  0  0
  3  4  1  0  0  0
  4  5  2  0  0  0
  4  6  1  0  0  0
  6 18  1  0  0  0
 18 19  2  0  0  0
 19 20  1  0  0  0
 20 21  2  0  0  0
 21 22  1  0  0  0
 22 23  2  0  0  0
 23 24  1  0  0  0
 24 25  2  0  0  0
 25 26  1  0  0  0
 26 27  2  0  0  0
  6  7  1  0  0  0
  7  8  1  0  0  0
  8 34  1  0  0  0
 34 35  1  0  0  0
 35 36  1  0  0  0
 36 37  1  0  0  0
 36 38  1  0  0  0
  3  9  1  0  0  0
  9 10  2  0  0  0
 10 11  1  0  0  0
 11 12  1  0  0  0
 11 13  2  0  0  0
 13 14  1  0  0  0
 14 15  2  0  0  0
 15 16  1  0  0  0
 16 17  2  0  0  0
 16  1  1  0  0  0
  8  3  1  0  0  0
 15  9  1  0  0  0
 27 18  1  0  0  0
 27 22  1  0  0  0
 30 33  1  0  0  0
M  END
> <minimizedAffinity>
-7.14673

> <CNNscore>
0.2763516903

> <CNNaffinity>
6.7180213928

> <CNN_VS>
1.8565366268

> <CNNaffinity_variance>
0.0482195988

$$$$



 38 42  0  0  0  0  0  0  0  0999 V2000
   10.8746    1.5484   22.8096 N   0  0  0  0  0  0  0  0  0  0  0  0
    9.4873    1.2579   23.3006 C   0  0  0  0  0  0  0  0  0  0  0  0
    9.2454    0.1007   24.2238 C   0  0  0  0  0  0  0  0  0  0  0  0
    8.8520   -1.0155   25.1454 C   0  0  0  0  0  0  0  0  0  0  0  0
    9.3519   -1.9433   25.7501 O   0  0  0  0  0  0  0  0  0  0  0  0
    7.3714   -0.9307   25.3706 N   0  0  0  0  0  0  0  0  0  0  0  0
    6.8498    0.2379   24.5880 C   0  0  0  0  0  0  0  0  0  0  0  0
    8.0080    0.8753   23.8793 C   0  0  0  0  0  0  0  0  0  0  0  0
   10.3909   -0.7661   24.6560 C   0  0  0  0  0  0  0  0  0  0  0  0
   10.1490   -1.9233   25.5792 C   0  0  0  0  0  0  0  0  0  0  0  0
   11.2944   -2.7901   26.0114 C   0  0  0  0  0  0  0  0  0  0  0  0
   11.0525   -3.9474   26.9346 Cl  0  0  0  0  0  0  0  0  0  0  0  0
   12.6816   -2.4996   25.5204 C   0  0  0  0  0  0  0  0  0  0  0  0
   12.9235   -1.3423   24.5972 C   0  0  0  0  0  0  0  0  0  0  0  0
   11.7781   -0.4756   24.1650 C   0  0  0  0  0  0  0  0  0  0  0  0
   12.0200    0.6817   23.2418 C   0  0  0  0  0  0  0  0  0  0  0  0
   13.4073    0.9722   22.7508 O   0  0  0  0  0  0  0  0  0  0  0  0
    6.5557   -1.8525   26.2278 C   0  0  0  0  0  0  0  0  0  0  0  0
    6.3536   -3.2798   25.8129 C   0  0  0  0  0  0  0  0  0  0  0  0
    5.5379   -4.2017   26.6701 N   0  0  0  0  0  0  0  0  0  0  0  0
    4.9244   -3.6963   27.9421 C   0  0  0  0  0  0  0  0  0  0  0  0
    5.1265   -2.2690   28.3570 C   0  0  0  0  0  0  0  0  0  0  0  0
    4.5128   -1.7637   29.6291 C   0  0  0  0  0  0  0  0  0  0  0  0
    4.7150   -0.3364   30.0438 C   0  0  0  0  0  0  0  0  0  0  0  0
    5.5307    0.5855   29.1867 C   0  0  0  0  0  0  0  0  0  0  0  0
    6.1442    0.0801   27.9146 C   0  0  0  0  0  0  0  0  0  0  0  0
    5.9421   -1.3472   27.4998 C   0  0  0  0  0  0  0  0  0  0  0  0
   11.1165    2.7057   21.8864 C   0  0  0  0  0  0  0  0  0  0  0  0
   10.7001    6.3562   23.3864 C   0  0  0  0  0  0  0  0  0  0  0  0
   10.3606    5.0073   22.8251 N   0  0  0  0  0  0  0  0  0  0  0  0
   11.4560    4.0546   22.4477 C   0  0  0  0  0  0  0  0  0  0  0  0
   12.8910    4.4508   22.6317 O   0  0  0  0  0  0  0  0  0  0  0  0
    9.4188    4.7472   22.7043 H   0  0  0  0  0  0  0  0  0  0  0  0
    7.9405    2.0764   22.9833 C   0  0  0  0  0  0  0  0  0  0  0  0
    6.6449    2.4504   22.3265 O   0  0  0  0  0  0  0  0  0  0  0  0
    6.1728    1.6991   21.1171 C   0  0  0  0  0  0  0  0  0  0  0  0
    4.8169    1.9812   20.5409 C   0  0  0  0  0  0  0  0  0  0  0  0
    7.0566    0.6658   20.4838 C   0  0  0  0  0  0  0  0  0  0  0  0
 29 30  1  0  0  0
 30 31  1  0  0  0
 31 32  2  0  0  0
 31 28  1  0  0  0
 28  1  1  0  0  0
  1  2  1  0  0  0
  3  2  1  0  0  0
  3  4  1  0  0  0
  4  5  2  0  0  0
  4  6  1  0  0  0
  6 18  1  0  0  0
 18 19  2  0  0  0
 19 20  1  0  0  0
 20 21  2  0  0  0
 21 22  1  0  0  0
 22 23  2  0  0  0
 23 24  1  0  0  0
 24 25  2  0  0  0
 25 26  1  0  0  0
 26 27  2  0  0  0
  6  7  1  0  0  0
  7  8  1  0  0  0
  8 34  1  0  0  0
 34 35  1  0  0  0
 35 36  1  0  0  0
 36 37  1  0  0  0
 36 38  1  0  0  0
  3  9  1  0  0  0
  9 10  2  0  0  0
 10 11  1  0  0  0
 11 12  1  0  0  0
 11 13  2  0  0  0
 13 14  1  0  0  0
 14 15  2  0  0  0
 15 16  1  0  0  0
 16 17  2  0  0  0
 16  1  1  0  0  0
  8  3  1  0  0  0
 15  9  1  0  0  0
 27 18  1  0  0  0
 27 22  1  0  0  0
 30 33  1  0  0  0
M  END
> <minimizedAffinity>
-7.73956

> <CNNscore>
0.2669972479

> <CNNaffinity>
6.6321778297

> <CNN_VS>
1.7707731724

> <CNNaffinity_variance>
0.1650012434

$$$$



 38 42  0  0  0  0  0  0  0  0999 V2000
    5.5567    3.8399   22.7074 N   0  0  0  0  0  0  0  0  0  0  0  0
    6.3546    2.5744   22.5989 C   0  0  0  0  0  0  0  0  0  0  0  0
    6.7593    1.8342   23.8392 C   0  0  0  0  0  0  0  0  0  0  0  0
    7.2336    0.9900   24.9848 C   0  0  0  0  0  0  0  0  0  0  0  0
    7.1938    0.9613   26.1988 O   0  0  0  0  0  0  0  0  0  0  0  0
    7.9904   -0.1753   24.4197 N   0  0  0  0  0  0  0  0  0  0  0  0
    7.9838   -0.0513   22.9248 C   0  0  0  0  0  0  0  0  0  0  0  0
    7.2229    1.1907   22.5661 C   0  0  0  0  0  0  0  0  0  0  0  0
    6.3660    2.3596   25.1881 C   0  0  0  0  0  0  0  0  0  0  0  0
    6.7706    1.6195   26.4284 C   0  0  0  0  0  0  0  0  0  0  0  0
    6.3774    2.1449   27.7772 C   0  0  0  0  0  0  0  0  0  0  0  0
    6.7820    1.4047   29.0176 Cl  0  0  0  0  0  0  0  0  0  0  0  0
    5.5795    3.4104   27.8857 C   0  0  0  0  0  0  0  0  0  0  0  0
    5.1749    4.1506   26.6454 C   0  0  0  0  0  0  0  0  0  0  0  0
    5.5681    3.6252   25.2966 C   0  0  0  0  0  0  0  0  0  0  0  0
    5.1635    4.3653   24.0562 C   0  0  0  0  0  0  0  0  0  0  0  0
    4.3656    5.6309   24.1647 O   0  0  0  0  0  0  0  0  0  0  0  0
    8.6398   -1.2720   25.2106 C   0  0  0  0  0  0  0  0  0  0  0  0
    7.7945   -2.2445   25.9785 C   0  0  0  0  0  0  0  0  0  0  0  0
    8.4438   -3.3412   26.7694 N   0  0  0  0  0  0  0  0  0  0  0  0
    9.9385   -3.4654   26.7924 C   0  0  0  0  0  0  0  0  0  0  0  0
   10.7838   -2.4928   26.0246 C   0  0  0  0  0  0  0  0  0  0  0  0
   12.2785   -2.6170   26.0476 C   0  0  0  0  0  0  0  0  0  0  0  0
   13.1237   -1.6443   25.2797 C   0  0  0  0  0  0  0  0  0  0  0  0
   12.4744   -0.5476   24.4888 C   0  0  0  0  0  0  0  0  0  0  0  0
   10.9797   -0.4235   24.4658 C   0  0  0  0  0  0  0  0  0  0  0  0
   10.1344   -1.3961   25.2336 C   0  0  0  0  0  0  0  0  0  0  0  0
    5.1521    4.5801   21.4670 C   0  0  0  0  0  0  0  0  0  0  0  0
    1.4628    4.7320   20.0124 C   0  0  0  0  0  0  0  0  0  0  0  0
    2.7163    5.1176   20.7405 N   0  0  0  0  0  0  0  0  0  0  0  0
    3.8986    4.1946   20.7389 C   0  0  0  0  0  0  0  0  0  0  0  0
    3.8275    2.8859   20.0091 O   0  0  0  0  0  0  0  0  0  0  0  0
    2.7629    5.9765   21.2194 H   0  0  0  0  0  0  0  0  0  0  0  0
    6.9701    1.6997   21.1779 C   0  0  0  0  0  0  0  0  0  0  0  0
    7.1756    0.7958   19.9987 O   0  0  0  0  0  0  0  0  0  0  0  0
    6.0192    0.0257   19.4334 C   0  0  0  0  0  0  0  0  0  0  0  0
    5.4313   -1.1186   20.2048 C   0  0  0  0  0  0  0  0  0  0  0  0
    5.4507    0.3998   18.0967 C   0  0  0  0  0  0  0  0  0  0  0  0
 29 30  1  0  0  0
 30 31  1  0  0  0
 31 32  2  0  0  0
 31 28  1  0  0  0
 28  1  1  0  0  0
  1  2  1  0  0  0
  3  2  1  0  0  0
  3  4  1  0  0  0
  4  5  2  0  0  0
  4  6  1  0  0  0
  6 18  1  0  0  0
 18 19  2  0  0  0
 19 20  1  0  0  0
 20 21  2  0  0  0
 21 22  1  0  0  0
 22 23  2  0  0  0
 23 24  1  0  0  0
 24 25  2  0  0  0
 25 26  1  0  0  0
 26 27  2  0  0  0
  6  7  1  0  0  0
  7  8  1  0  0  0
  8 34  1  0  0  0
 34 35  1  0  0  0
 35 36  1  0  0  0
 36 37  1  0  0  0
 36 38  1  0  0  0
  3  9  1  0  0  0
  9 10  2  0  0  0
 10 11  1  0  0  0
 11 12  1  0  0  0
 11 13  2  0  0  0
 13 14  1  0  0  0
 14 15  2  0  0  0
 15 16  1  0  0  0
 16 17  2  0  0  0
 16  1  1  0  0  0
  8  3  1  0  0  0
 15  9  1  0  0  0
 27 18  1  0  0  0
 27 22  1  0  0  0
 30 33  1  0  0  0
M  END
> <minimizedAffinity>
-7.49424

> <CNNscore>
0.2215017825

> <CNNaffinity>
6.1451768875

> <CNN_VS>
1.3611676693

> <CNNaffinity_variance>
0.0801080614

$$$$



 38 42  0  0  0  0  0  0  0  0999 V2000
    9.6797    0.5868   22.6740 N   0  0  0  0  0  0  0  0  0  0  0  0
    8.5482   -0.3886   22.5388 C   0  0  0  0  0  0  0  0  0  0  0  0
    8.5468   -1.6524   23.3467 C   0  0  0  0  0  0  0  0  0  0  0  0
    8.4090   -2.9508   24.0851 C   0  0  0  0  0  0  0  0  0  0  0  0
    8.9995   -3.6200   24.9096 O   0  0  0  0  0  0  0  0  0  0  0  0
    7.1314   -3.6015   23.6441 N   0  0  0  0  0  0  0  0  0  0  0  0
    6.4797   -2.7053   22.6332 C   0  0  0  0  0  0  0  0  0  0  0  0
    7.3544   -1.5007   22.4494 C   0  0  0  0  0  0  0  0  0  0  0  0
    9.6771   -1.9409   24.2898 C   0  0  0  0  0  0  0  0  0  0  0  0
    9.6757   -3.2048   25.0977 C   0  0  0  0  0  0  0  0  0  0  0  0
   10.8059   -3.4932   26.0408 C   0  0  0  0  0  0  0  0  0  0  0  0
   10.8046   -4.7571   26.8487 Cl  0  0  0  0  0  0  0  0  0  0  0  0
   11.9374   -2.5179   26.1760 C   0  0  0  0  0  0  0  0  0  0  0  0
   11.9388   -1.2540   25.3681 C   0  0  0  0  0  0  0  0  0  0  0  0
   10.8086   -0.9656   24.4250 C   0  0  0  0  0  0  0  0  0  0  0  0
   10.8099    0.2983   23.6171 C   0  0  0  0  0  0  0  0  0  0  0  0
   11.9414    1.2737   23.7523 O   0  0  0  0  0  0  0  0  0  0  0  0
    6.5991   -4.9174   24.1290 C   0  0  0  0  0  0  0  0  0  0  0  0
    7.1595   -6.1988   23.5868 C   0  0  0  0  0  0  0  0  0  0  0  0
    6.6271   -7.5147   24.0716 N   0  0  0  0  0  0  0  0  0  0  0  0
    5.5345   -7.5492   25.0987 C   0  0  0  0  0  0  0  0  0  0  0  0
    4.9741   -6.2677   25.6409 C   0  0  0  0  0  0  0  0  0  0  0  0
    3.8814   -6.3022   26.6680 C   0  0  0  0  0  0  0  0  0  0  0  0
    3.3211   -5.0207   27.2102 C   0  0  0  0  0  0  0  0  0  0  0  0
    3.8534   -3.7049   26.7253 C   0  0  0  0  0  0  0  0  0  0  0  0
    4.9461   -3.6704   25.6982 C   0  0  0  0  0  0  0  0  0  0  0  0
    5.5064   -4.9518   25.1560 C   0  0  0  0  0  0  0  0  0  0  0  0
    9.6810    1.8506   21.8661 C   0  0  0  0  0  0  0  0  0  0  0  0
   10.8485    5.4551   23.0471 C   0  0  0  0  0  0  0  0  0  0  0  0
   10.8400    4.1235   22.3565 N   0  0  0  0  0  0  0  0  0  0  0  0
    9.6895    3.1822   22.5567 C   0  0  0  0  0  0  0  0  0  0  0  0
    8.5474    3.5724   23.4475 O   0  0  0  0  0  0  0  0  0  0  0  0
   11.5896    3.8674   21.7719 H   0  0  0  0  0  0  0  0  0  0  0  0
    7.0842   -0.3469   21.5297 C   0  0  0  0  0  0  0  0  0  0  0  0
    6.5933   -0.5986   20.1349 O   0  0  0  0  0  0  0  0  0  0  0  0
    5.4354    0.1868   19.5941 C   0  0  0  0  0  0  0  0  0  0  0  0
    5.2756    0.3639   18.1132 C   0  0  0  0  0  0  0  0  0  0  0  0
    4.4374    0.7952   20.5342 C   0  0  0  0  0  0  0  0  0  0  0  0
 29 30  1  0  0  0
 30 31  1  0  0  0
 31 32  2  0  0  0
 31 28  1  0  0  0
 28  1  1  0  0  0
  1  2  1  0  0  0
  3  2  1  0  0  0
  3  4  1  0  0  0
  4  5  2  0  0  0
  4  6  1  0  0  0
  6 18  1  0  0  0
 18 19  2  0  0  0
 19 20  1  0  0  0
 20 21  2  0  0  0
 21 22  1  0  0  0
 22 23  2  0  0  0
 23 24  1  0  0  0
 24 25  2  0  0  0
 25 26  1  0  0  0
 26 27  2  0  0  0
  6  7  1  0  0  0
  7  8  1  0  0  0
  8 34  1  0  0  0
 34 35  1  0  0  0
 35 36  1  0  0  0
 36 37  1  0  0  0
 36 38  1  0  0  0
  3  9  1  0  0  0
  9 10  2  0  0  0
 10 11  1  0  0  0
 11 12  1  0  0  0
 11 13  2  0  0  0
 13 14  1  0  0  0
 14 15  2  0  0  0
 15 16  1  0  0  0
 16 17  2  0  0  0
 16  1  1  0  0  0
  8  3  1  0  0  0
 15  9  1  0  0  0
 27 18  1  0  0  0
 27 22  1  0  0  0
 30 33  1  0  0  0
M  END
> <minimizedAffinity>
-8.43769

> <CNNscore>
0.2205535024

> <CNNaffinity>
6.6174659729

> <CNN_VS>
1.4595053196

> <CNNaffinity_variance>
0.2300469875

$$$$



 38 42  0  0  0  0  0  0  0  0999 V2000
    7.4983   -2.6428   22.5903 N   0  0  0  0  0  0  0  0  0  0  0  0
    8.6050   -1.6734   22.8830 C   0  0  0  0  0  0  0  0  0  0  0  0
    8.4291   -0.2173   22.5689 C   0  0  0  0  0  0  0  0  0  0  0  0
    8.3984    1.2600   22.3108 C   0  0  0  0  0  0  0  0  0  0  0  0
    7.6556    2.1118   21.8647 O   0  0  0  0  0  0  0  0  0  0  0  0
    9.7111    1.8353   22.7534 N   0  0  0  0  0  0  0  0  0  0  0  0
   10.5531    0.7135   23.2851 C   0  0  0  0  0  0  0  0  0  0  0  0
    9.7608   -0.5550   23.1710 C   0  0  0  0  0  0  0  0  0  0  0  0
    7.1466    0.2696   21.9621 C   0  0  0  0  0  0  0  0  0  0  0  0
    6.9707    1.7257   21.6480 C   0  0  0  0  0  0  0  0  0  0  0  0
    5.6882    2.2125   21.0413 C   0  0  0  0  0  0  0  0  0  0  0  0
    5.5123    3.6687   20.7272 Cl  0  0  0  0  0  0  0  0  0  0  0  0
    4.5816    1.2431   20.7486 C   0  0  0  0  0  0  0  0  0  0  0  0
    4.7574   -0.2130   21.0627 C   0  0  0  0  0  0  0  0  0  0  0  0
    6.0399   -0.6998   21.6694 C   0  0  0  0  0  0  0  0  0  0  0  0
    6.2158   -2.1560   21.9836 C   0  0  0  0  0  0  0  0  0  0  0  0
    5.1092   -3.1253   21.6909 O   0  0  0  0  0  0  0  0  0  0  0  0
   10.1115    3.2789   22.6777 C   0  0  0  0  0  0  0  0  0  0  0  0
   11.3827    3.6693   21.9836 C   0  0  0  0  0  0  0  0  0  0  0  0
   11.7830    5.1129   21.9079 N   0  0  0  0  0  0  0  0  0  0  0  0
   10.9122    6.1661   22.5262 C   0  0  0  0  0  0  0  0  0  0  0  0
    9.6410    5.7757   23.2203 C   0  0  0  0  0  0  0  0  0  0  0  0
    8.7702    6.8290   23.8387 C   0  0  0  0  0  0  0  0  0  0  0  0
    7.4990    6.4385   24.5328 C   0  0  0  0  0  0  0  0  0  0  0  0
    7.0987    4.9950   24.6085 C   0  0  0  0  0  0  0  0  0  0  0  0
    7.9695    3.9417   23.9902 C   0  0  0  0  0  0  0  0  0  0  0  0
    9.2407    4.3321   23.2961 C   0  0  0  0  0  0  0  0  0  0  0  0
    7.6742   -4.0990   22.9044 C   0  0  0  0  0  0  0  0  0  0  0  0
    4.2749   -5.8795   23.9164 C   0  0  0  0  0  0  0  0  0  0  0  0
    5.4568   -4.9566   23.9520 N   0  0  0  0  0  0  0  0  0  0  0  0
    6.4923   -5.0220   22.8688 C   0  0  0  0  0  0  0  0  0  0  0  0
    6.3460   -6.0104   21.7500 O   0  0  0  0  0  0  0  0  0  0  0  0
    5.5528   -4.3078   24.6863 H   0  0  0  0  0  0  0  0  0  0  0  0
   10.2196   -1.9214   23.5862 C   0  0  0  0  0  0  0  0  0  0  0  0
   11.6578   -2.1533   23.9436 O   0  0  0  0  0  0  0  0  0  0  0  0
   12.0468   -2.3892   25.3729 C   0  0  0  0  0  0  0  0  0  0  0  0
   13.4131   -1.9980   25.8527 C   0  0  0  0  0  0  0  0  0  0  0  0
   11.0696   -3.0164   26.3225 C   0  0  0  0  0  0  0  0  0  0  0  0
 29 30  1  0  0  0
 30 31  1  0  0  0
 31 32  2  0  0  0
 31 28  1  0  0  0
 28  1  1  0  0  0
  1  2  1  0  0  0
  3  2  1  0  0  0
  3  4  1  0  0  0
  4  5  2  0  0  0
  4  6  1  0  0  0
  6 18  1  0  0  0
 18 19  2  0  0  0
 19 20  1  0  0  0
 20 21  2  0  0  0
 21 22  1  0  0  0
 22 23  2  0  0  0
 23 24  1  0  0  0
 24 25  2  0  0  0
 25 26  1  0  0  0
 26 27  2  0  0  0
  6  7  1  0  0  0
  7  8  1  0  0  0
  8 34  1  0  0  0
 34 35  1  0  0  0
 35 36  1  0  0  0
 36 37  1  0  0  0
 36 38  1  0  0  0
  3  9  1  0  0  0
  9 10  2  0  0  0
 10 11  1  0  0  0
 11 12  1  0  0  0
 11 13  2  0  0  0
 13 14  1  0  0  0
 14 15  2  0  0  0
 15 16  1  0  0  0
 16 17  2  0  0  0
 16  1  1  0  0  0
  8  3  1  0  0  0
 15  9  1  0  0  0
 27 18  1  0  0  0
 27 22  1  0  0  0
 30 33  1  0  0  0
M  END
> <minimizedAffinity>
-7.28040

> <CNNscore>
0.2197422981

> <CNNaffinity>
6.6526741982

> <CNN_VS>
1.4618738890

> <CNNaffinity_variance>
0.1748696566

$$$$



 38 42  0  0  0  0  0  0  0  0999 V2000
   10.8623    1.6393   22.6757 N   0  0  0  0  0  0  0  0  0  0  0  0
    9.4721    1.1738   22.9929 C   0  0  0  0  0  0  0  0  0  0  0  0
    9.2646   -0.0744   23.7985 C   0  0  0  0  0  0  0  0  0  0  0  0
    8.9030   -1.2965   24.5893 C   0  0  0  0  0  0  0  0  0  0  0  0
    9.4365   -2.2177   25.1752 O   0  0  0  0  0  0  0  0  0  0  0  0
    7.4068   -1.3770   24.6601 N   0  0  0  0  0  0  0  0  0  0  0  0
    6.8438   -0.2045   23.9130 C   0  0  0  0  0  0  0  0  0  0  0  0
    7.9919    0.6006   23.3805 C   0  0  0  0  0  0  0  0  0  0  0  0
   10.4474   -0.8571   24.2870 C   0  0  0  0  0  0  0  0  0  0  0  0
   10.2399   -2.1052   25.0926 C   0  0  0  0  0  0  0  0  0  0  0  0
   11.4226   -2.8878   25.5810 C   0  0  0  0  0  0  0  0  0  0  0  0
   11.2152   -4.1361   26.3866 Cl  0  0  0  0  0  0  0  0  0  0  0  0
   12.8129   -2.4223   25.2638 C   0  0  0  0  0  0  0  0  0  0  0  0
   13.0203   -1.1742   24.4582 C   0  0  0  0  0  0  0  0  0  0  0  0
   11.8376   -0.3916   23.9698 C   0  0  0  0  0  0  0  0  0  0  0  0
   12.0451    0.8567   23.1641 C   0  0  0  0  0  0  0  0  0  0  0  0
   13.4353    1.3222   22.8470 O   0  0  0  0  0  0  0  0  0  0  0  0
    6.6131   -2.4428   25.3559 C   0  0  0  0  0  0  0  0  0  0  0  0
    6.0575   -2.1901   26.7261 C   0  0  0  0  0  0  0  0  0  0  0  0
    5.2638   -3.2559   27.4219 N   0  0  0  0  0  0  0  0  0  0  0  0
    5.0257   -4.5744   26.7474 C   0  0  0  0  0  0  0  0  0  0  0  0
    5.5813   -4.8270   25.3772 C   0  0  0  0  0  0  0  0  0  0  0  0
    5.3431   -6.1456   24.7027 C   0  0  0  0  0  0  0  0  0  0  0  0
    5.8987   -6.3981   23.3324 C   0  0  0  0  0  0  0  0  0  0  0  0
    6.6924   -5.3323   22.6367 C   0  0  0  0  0  0  0  0  0  0  0  0
    6.9305   -4.0139   23.3112 C   0  0  0  0  0  0  0  0  0  0  0  0
    6.3750   -3.7612   24.6814 C   0  0  0  0  0  0  0  0  0  0  0  0
   11.0698    2.8875   21.8701 C   0  0  0  0  0  0  0  0  0  0  0  0
   10.3739    6.4095   23.5615 C   0  0  0  0  0  0  0  0  0  0  0  0
   10.1424    5.0995   22.8686 N   0  0  0  0  0  0  0  0  0  0  0  0
   11.3013    4.1976   22.5630 C   0  0  0  0  0  0  0  0  0  0  0  0
   12.6918    4.6057   22.9503 O   0  0  0  0  0  0  0  0  0  0  0  0
    9.2298    4.8316   22.6144 H   0  0  0  0  0  0  0  0  0  0  0  0
    7.8860    1.8595   22.5719 C   0  0  0  0  0  0  0  0  0  0  0  0
    7.6980    1.7829   21.0858 O   0  0  0  0  0  0  0  0  0  0  0  0
    6.5036    1.0764   20.5162 C   0  0  0  0  0  0  0  0  0  0  0  0
    6.6922   -0.0693   19.5667 C   0  0  0  0  0  0  0  0  0  0  0  0
    5.1207    1.5158   20.8963 C   0  0  0  0  0  0  0  0  0  0  0  0
 29 30  1  0  0  0
 30 31  1  0  0  0
 31 32  2  0  0  0
 31 28  1  0  0  0
 28  1  1  0  0  0
  1  2  1  0  0  0
  3  2  1  0  0  0
  3  4  1  0  0  0
  4  5  2  0  0  0
  4  6  1  0  0  0
  6 18  1  0  0  0
 18 19  2  0  0  0
 19 20  1  0  0  0
 20 21  2  0  0  0
 21 22  1  0  0  0
 22 23  2  0  0  0
 23 24  1  0  0  0
 24 25  2  0  0  0
 25 26  1  0  0  0
 26 27  2  0  0  0
  6  7  1  0  0  0
  7  8  1  0  0  0
  8 34  1  0  0  0
 34 35  1  0  0  0
 35 36  1  0  0  0
 36 37  1  0  0  0
 36 38  1  0  0  0
  3  9  1  0  0  0
  9 10  2  0  0  0
 10 11  1  0  0  0
 11 12  1  0  0  0
 11 13  2  0  0  0
 13 14  1  0  0  0
 14 15  2  0  0  0
 15 16  1  0  0  0
 16 17  2  0  0  0
 16  1  1  0  0  0
  8  3  1  0  0  0
 15  9  1  0  0  0
 27 18  1  0  0  0
 27 22  1  0  0  0
 30 33  1  0  0  0
M  END
> <minimizedAffinity>
-8.26804

> <CNNscore>
0.2168706506

> <CNNaffinity>
6.7032790184

> <CNN_VS>
1.4537445307

> <CNNaffinity_variance>
0.3202494979

$$$$



 38 42  0  0  0  0  0  0  0  0999 V2000
    6.3642   -4.3858   23.0033 N   0  0  0  0  0  0  0  0  0  0  0  0
    6.3838   -2.9596   22.5390 C   0  0  0  0  0  0  0  0  0  0  0  0
    7.4212   -2.0133   23.0666 C   0  0  0  0  0  0  0  0  0  0  0  0
    8.3927   -0.9572   23.5034 C   0  0  0  0  0  0  0  0  0  0  0  0
    9.3504   -0.8201   24.2384 O   0  0  0  0  0  0  0  0  0  0  0  0
    8.0447    0.3161   22.7907 N   0  0  0  0  0  0  0  0  0  0  0  0
    6.8581    0.0468   21.9135 C   0  0  0  0  0  0  0  0  0  0  0  0
    6.4728   -1.3928   22.0839 C   0  0  0  0  0  0  0  0  0  0  0  0
    8.4390   -2.4932   24.0585 C   0  0  0  0  0  0  0  0  0  0  0  0
    9.4764   -1.5470   24.5860 C   0  0  0  0  0  0  0  0  0  0  0  0
   10.4941   -2.0269   25.5779 C   0  0  0  0  0  0  0  0  0  0  0  0
   11.5316   -1.0806   26.1055 Cl  0  0  0  0  0  0  0  0  0  0  0  0
   10.4745   -3.4531   26.0421 C   0  0  0  0  0  0  0  0  0  0  0  0
    9.4371   -4.3994   25.5146 C   0  0  0  0  0  0  0  0  0  0  0  0
    8.4194   -3.9194   24.5227 C   0  0  0  0  0  0  0  0  0  0  0  0
    7.3819   -4.8657   23.9951 C   0  0  0  0  0  0  0  0  0  0  0  0
    7.3623   -6.2919   24.4594 O   0  0  0  0  0  0  0  0  0  0  0  0
    8.7580    1.6281   22.9308 C   0  0  0  0  0  0  0  0  0  0  0  0
    7.9781    2.8809   23.1996 C   0  0  0  0  0  0  0  0  0  0  0  0
    8.6915    4.1930   23.3397 N   0  0  0  0  0  0  0  0  0  0  0  0
   10.1848    4.2522   23.2109 C   0  0  0  0  0  0  0  0  0  0  0  0
   10.9647    2.9994   22.9420 C   0  0  0  0  0  0  0  0  0  0  0  0
   12.4580    3.0587   22.8133 C   0  0  0  0  0  0  0  0  0  0  0  0
   13.2379    1.8059   22.5444 C   0  0  0  0  0  0  0  0  0  0  0  0
   12.5245    0.4938   22.4044 C   0  0  0  0  0  0  0  0  0  0  0  0
   11.0312    0.4346   22.5332 C   0  0  0  0  0  0  0  0  0  0  0  0
   10.2513    1.6874   22.8020 C   0  0  0  0  0  0  0  0  0  0  0  0
    5.3267   -5.3320   22.4756 C   0  0  0  0  0  0  0  0  0  0  0  0
    2.3377   -7.5427   23.8646 C   0  0  0  0  0  0  0  0  0  0  0  0
    3.4022   -7.0114   22.9510 N   0  0  0  0  0  0  0  0  0  0  0  0
    4.2623   -5.8633   23.3893 C   0  0  0  0  0  0  0  0  0  0  0  0
    4.0579   -5.2464   24.7412 O   0  0  0  0  0  0  0  0  0  0  0  0
    3.5363   -7.4162   22.0636 H   0  0  0  0  0  0  0  0  0  0  0  0
    5.3382   -2.0895   21.3931 C   0  0  0  0  0  0  0  0  0  0  0  0
    5.0450   -1.7973   19.9514 O   0  0  0  0  0  0  0  0  0  0  0  0
    5.1254   -0.3894   19.4401 C   0  0  0  0  0  0  0  0  0  0  0  0
    4.1696    0.6489   19.9483 C   0  0  0  0  0  0  0  0  0  0  0  0
    6.1617   -0.0199   18.4205 C   0  0  0  0  0  0  0  0  0  0  0  0
 29 30  1  0  0  0
 30 31  1  0  0  0
 31 32  2  0  0  0
 31 28  1  0  0  0
 28  1  1  0  0  0
  1  2  1  0  0  0
  3  2  1  0  0  0
  3  4  1  0  0  0
  4  5  2  0  0  0
  4  6  1  0  0  0
  6 18  1  0  0  0
 18 19  2  0  0  0
 19 20  1  0  0  0
 20 21  2  0  0  0
 21 22  1  0  0  0
 22 23  2  0  0  0
 23 24  1  0  0  0
 24 25  2  0  0  0
 25 26  1  0  0  0
 26 27  2  0  0  0
  6  7  1  0  0  0
  7  8  1  0  0  0
  8 34  1  0  0  0
 34 35  1  0  0  0
 35 36  1  0  0  0
 36 37  1  0  0  0
 36 38  1  0  0  0
  3  9  1  0  0  0
  9 10  2  0  0  0
 10 11  1  0  0  0
 11 12  1  0  0  0
 11 13  2  0  0  0
 13 14  1  0  0  0
 14 15  2  0  0  0
 15 16  1  0  0  0
 16 17  2  0  0  0
 16  1  1  0  0  0
  8  3  1  0  0  0
 15  9  1  0  0  0
 27 18  1  0  0  0
 27 22  1  0  0  0
 30 33  1  0  0  0
M  END
> <minimizedAffinity>
-7.13006

> <CNNscore>
0.2059351206

> <CNNaffinity>
6.4192900658

> <CNN_VS>
1.3219572306

> <CNNaffinity_variance>
0.0682074577

$$$$
