


 42 47  0  0  0  0  0  0  0  0999 V2000
   -7.7150   -1.6261  -23.6470 N   0  0  0  0  0  0  0  0  0  0  0  0
   -7.9949   -0.1588  -23.7830 C   0  0  0  0  0  0  0  0  0  0  0  0
   -9.4006    0.3508  -23.6635 C   0  0  0  0  0  0  0  0  0  0  0  0
  -10.7475    1.0040  -23.5683 C   0  0  0  0  0  0  0  0  0  0  0  0
  -11.9127    0.7121  -23.3857 O   0  0  0  0  0  0  0  0  0  0  0  0
  -10.5621    2.4795  -23.7645 N   0  0  0  0  0  0  0  0  0  0  0  0
   -9.1005    2.7383  -23.9809 C   0  0  0  0  0  0  0  0  0  0  0  0
   -8.3827    1.4227  -23.9185 C   0  0  0  0  0  0  0  0  0  0  0  0
  -10.5264   -0.6070  -23.4081 C   0  0  0  0  0  0  0  0  0  0  0  0
  -11.9321   -0.0974  -23.2886 C   0  0  0  0  0  0  0  0  0  0  0  0
  -13.0579   -1.0551  -23.0332 C   0  0  0  0  0  0  0  0  0  0  0  0
  -14.4636   -0.5455  -22.9137 Cl  0  0  0  0  0  0  0  0  0  0  0  0
  -12.7780   -2.5225  -22.8973 C   0  0  0  0  0  0  0  0  0  0  0  0
  -11.3723   -3.0321  -23.0167 C   0  0  0  0  0  0  0  0  0  0  0  0
  -10.2465   -2.0743  -23.2721 C   0  0  0  0  0  0  0  0  0  0  0  0
   -8.8407   -2.5839  -23.3916 C   0  0  0  0  0  0  0  0  0  0  0  0
   -8.5608   -4.0513  -23.2557 O   0  0  0  0  0  0  0  0  0  0  0  0
  -11.6477    3.5145  -23.7472 C   0  0  0  0  0  0  0  0  0  0  0  0
  -12.5006    3.6865  -22.5254 C   0  0  0  0  0  0  0  0  0  0  0  0
  -13.5862    4.7215  -22.5082 N   0  0  0  0  0  0  0  0  0  0  0  0
  -13.8188    5.5845  -23.7128 C   0  0  0  0  0  0  0  0  0  0  0  0
  -12.9658    5.4125  -24.9346 C   0  0  0  0  0  0  0  0  0  0  0  0
  -13.1984    6.2756  -26.1393 C   0  0  0  0  0  0  0  0  0  0  0  0
  -12.3454    6.1036  -27.3610 C   0  0  0  0  0  0  0  0  0  0  0  0
  -11.2599    5.0686  -27.3783 C   0  0  0  0  0  0  0  0  0  0  0  0
  -11.0273    4.2055  -26.1737 C   0  0  0  0  0  0  0  0  0  0  0  0
  -11.8802    4.3775  -24.9518 C   0  0  0  0  0  0  0  0  0  0  0  0
   -6.3092   -2.1357  -23.7665 C   0  0  0  0  0  0  0  0  0  0  0  0
   -5.5968   -5.8593  -22.5929 C   0  0  0  0  0  0  0  0  0  0  0  0
   -5.8577   -4.3830  -22.5435 N   0  0  0  0  0  0  0  0  0  0  0  0
   -6.0483   -3.6120  -23.8159 C   0  0  0  0  0  0  0  0  0  0  0  0
   -5.9780   -4.3174  -25.1380 O   0  0  0  0  0  0  0  0  0  0  0  0
   -5.9038   -3.9201  -21.6758 H   0  0  0  0  0  0  0  0  0  0  0  0
   -6.9061    1.2154  -24.0824 C   0  0  0  0  0  0  0  0  0  0  0  0
   -5.9404    2.0207  -23.2647 N   0  0  0  0  0  0  0  0  0  0  0  0
   -5.7349    2.9493  -23.5191 H   0  0  0  0  0  0  0  0  0  0  0  0
   -5.2875    1.4113  -22.0596 C   0  0  0  0  0  0  0  0  0  0  0  0
   -3.8227    1.4454  -21.7384 C   0  0  0  0  0  0  0  0  0  0  0  0
   -3.6148    0.7159  -20.4444 N   0  0  0  0  0  0  0  0  0  0  0  0
   -4.9511    0.2310  -19.9657 N   0  0  0  0  0  0  0  0  0  0  0  0
   -5.2084   -0.5471  -18.7094 C   0  0  0  0  0  0  0  0  0  0  0  0
   -5.9850    0.6607  -20.9640 C   0  0  0  0  0  0  0  0  0  0  0  0
 29 30  1  0  0  0
 30 31  1  0  0  0
 31 32  2  0  0  0
 31 28  1  0  0  0
 28  1  1  0  0  0
  1  2  1  0  0  0
  3  2  1  0  0  0
  3  4  1  0  0  0
  4  5  2  0  0  0
  4  6  1  0  0  0
  6 18  1  0  0  0
 18 19  2  0  0  0
 19 20  1  0  0  0
 20 21  2  0  0  0
 21 22  1  0  0  0
 22 23  2  0  0  0
 23 24  1  0  0  0
 24 25  2  0  0  0
 25 26  1  0  0  0
 26 27  2  0  0  0
  6  7  1  0  0  0
  7  8  1  0  0  0
  8 34  1  0  0  0
 34 35  1  0  0  0
 35 37  1  0  0  0
 37 38  1  0  0  0
 38 39  2  0  0  0
 39 40  1  0  0  0
 40 41  1  0  0  0
 40 42  1  0  0  0
  3  9  1  0  0  0
  9 10  2  0  0  0
 10 11  1  0  0  0
 11 12  1  0  0  0
 11 13  2  0  0  0
 13 14  1  0  0  0
 14 15  2  0  0  0
 15 16  1  0  0  0
 16 17  2  0  0  0
 16  1  1  0  0  0
  8  3  1  0  0  0
 42 37  2  0  0  0
 15  9  1  0  0  0
 27 18  1  0  0  0
 27 22  1  0  0  0
 30 33  1  0  0  0
 35 36  1  0  0  0
M  END
> <minimizedAffinity>
-7.68131

> <CNNscore>
0.5977717042

> <CNNaffinity>
7.0682387352

> <CNN_VS>
4.2251930237

> <CNNaffinity_variance>
0.0790799111

$$$$



 42 47  0  0  0  0  0  0  0  0999 V2000
   -7.0334   -0.7307  -22.8590 N   0  0  0  0  0  0  0  0  0  0  0  0
   -7.5006    0.6709  -23.1181 C   0  0  0  0  0  0  0  0  0  0  0  0
   -8.9660    0.9595  -23.2568 C   0  0  0  0  0  0  0  0  0  0  0  0
  -10.3913    1.3982  -23.4176 C   0  0  0  0  0  0  0  0  0  0  0  0
  -11.5143    0.9344  -23.4115 O   0  0  0  0  0  0  0  0  0  0  0  0
  -10.3961    2.8784  -23.6607 N   0  0  0  0  0  0  0  0  0  0  0  0
   -8.9737    3.3545  -23.6502 C   0  0  0  0  0  0  0  0  0  0  0  0
   -8.0899    2.1685  -23.4005 C   0  0  0  0  0  0  0  0  0  0  0  0
   -9.9643   -0.1536  -23.1364 C   0  0  0  0  0  0  0  0  0  0  0  0
  -11.4297    0.1349  -23.2750 C   0  0  0  0  0  0  0  0  0  0  0  0
  -12.4279   -0.9782  -23.1546 C   0  0  0  0  0  0  0  0  0  0  0  0
  -13.8934   -0.6897  -23.2933 Cl  0  0  0  0  0  0  0  0  0  0  0  0
  -11.9607   -2.3798  -22.8956 C   0  0  0  0  0  0  0  0  0  0  0  0
  -10.4953   -2.6684  -22.7569 C   0  0  0  0  0  0  0  0  0  0  0  0
   -9.4971   -1.5553  -22.8773 C   0  0  0  0  0  0  0  0  0  0  0  0
   -8.0316   -1.8438  -22.7386 C   0  0  0  0  0  0  0  0  0  0  0  0
   -7.5644   -3.2455  -22.4796 O   0  0  0  0  0  0  0  0  0  0  0  0
  -11.6102    3.7325  -23.8765 C   0  0  0  0  0  0  0  0  0  0  0  0
  -12.5676    3.9741  -22.7473 C   0  0  0  0  0  0  0  0  0  0  0  0
  -13.7817    4.8282  -22.9631 N   0  0  0  0  0  0  0  0  0  0  0  0
  -14.0383    5.4407  -24.3080 C   0  0  0  0  0  0  0  0  0  0  0  0
  -13.0808    5.1992  -25.4372 C   0  0  0  0  0  0  0  0  0  0  0  0
  -13.3375    5.8118  -26.7822 C   0  0  0  0  0  0  0  0  0  0  0  0
  -12.3800    5.5702  -27.9113 C   0  0  0  0  0  0  0  0  0  0  0  0
  -11.1660    4.7161  -27.6955 C   0  0  0  0  0  0  0  0  0  0  0  0
  -10.9094    4.1035  -26.3506 C   0  0  0  0  0  0  0  0  0  0  0  0
  -11.8668    4.3451  -25.2214 C   0  0  0  0  0  0  0  0  0  0  0  0
   -5.5679   -1.0192  -22.7204 C   0  0  0  0  0  0  0  0  0  0  0  0
   -2.5194    0.3707  -24.8474 C   0  0  0  0  0  0  0  0  0  0  0  0
   -3.4456    0.1194  -23.6946 N   0  0  0  0  0  0  0  0  0  0  0  0
   -4.6417   -0.7679  -23.8732 C   0  0  0  0  0  0  0  0  0  0  0  0
   -4.9116   -1.4040  -25.2046 O   0  0  0  0  0  0  0  0  0  0  0  0
   -3.2684    0.5369  -22.8208 H   0  0  0  0  0  0  0  0  0  0  0  0
   -6.5927    2.1882  -23.3104 C   0  0  0  0  0  0  0  0  0  0  0  0
   -5.8946    3.3555  -22.6782 N   0  0  0  0  0  0  0  0  0  0  0  0
   -6.3712    4.2087  -22.5596 H   0  0  0  0  0  0  0  0  0  0  0  0
   -4.4703    3.2230  -22.2267 C   0  0  0  0  0  0  0  0  0  0  0  0
   -3.2778    3.8660  -22.8705 C   0  0  0  0  0  0  0  0  0  0  0  0
   -2.0590    3.4646  -22.0937 N   0  0  0  0  0  0  0  0  0  0  0  0
   -2.4982    2.5735  -20.9699 N   0  0  0  0  0  0  0  0  0  0  0  0
   -1.6041    1.9425  -19.9440 C   0  0  0  0  0  0  0  0  0  0  0  0
   -3.9885    2.4242  -21.0520 C   0  0  0  0  0  0  0  0  0  0  0  0
 29 30  1  0  0  0
 30 31  1  0  0  0
 31 32  2  0  0  0
 31 28  1  0  0  0
 28  1  1  0  0  0
  1  2  1  0  0  0
  3  2  1  0  0  0
  3  4  1  0  0  0
  4  5  2  0  0  0
  4  6  1  0  0  0
  6 18  1  0  0  0
 18 19  2  0  0  0
 19 20  1  0  0  0
 20 21  2  0  0  0
 21 22  1  0  0  0
 22 23  2  0  0  0
 23 24  1  0  0  0
 24 25  2  0  0  0
 25 26  1  0  0  0
 26 27  2  0  0  0
  6  7  1  0  0  0
  7  8  1  0  0  0
  8 34  1  0  0  0
 34 35  1  0  0  0
 35 37  1  0  0  0
 37 38  1  0  0  0
 38 39  2  0  0  0
 39 40  1  0  0  0
 40 41  1  0  0  0
 40 42  1  0  0  0
  3  9  1  0  0  0
  9 10  2  0  0  0
 10 11  1  0  0  0
 11 12  1  0  0  0
 11 13  2  0  0  0
 13 14  1  0  0  0
 14 15  2  0  0  0
 15 16  1  0  0  0
 16 17  2  0  0  0
 16  1  1  0  0  0
  8  3  1  0  0  0
 42 37  2  0  0  0
 15  9  1  0  0  0
 27 18  1  0  0  0
 27 22  1  0  0  0
 30 33  1  0  0  0
 35 36  1  0  0  0
M  END
> <minimizedAffinity>
-7.28916

> <CNNscore>
0.5310022831

> <CNNaffinity>
6.7571997643

> <CNN_VS>
3.5880885124

> <CNNaffinity_variance>
0.1114396602

$$$$



 42 47  0  0  0  0  0  0  0  0999 V2000
   -7.0226   -1.6031  -22.8683 N   0  0  0  0  0  0  0  0  0  0  0  0
   -7.1117   -0.2209  -23.4439 C   0  0  0  0  0  0  0  0  0  0  0  0
   -8.4486    0.3584  -23.8004 C   0  0  0  0  0  0  0  0  0  0  0  0
   -9.7083    1.0664  -24.2029 C   0  0  0  0  0  0  0  0  0  0  0  0
  -10.9091    0.8839  -24.2344 O   0  0  0  0  0  0  0  0  0  0  0  0
   -9.3319    2.4209  -24.7259 N   0  0  0  0  0  0  0  0  0  0  0  0
   -7.8396    2.5501  -24.6466 C   0  0  0  0  0  0  0  0  0  0  0  0
   -7.2937    1.2754  -24.0746 C   0  0  0  0  0  0  0  0  0  0  0  0
   -9.6965   -0.4446  -23.5812 C   0  0  0  0  0  0  0  0  0  0  0  0
  -11.0334    0.1346  -23.9377 C   0  0  0  0  0  0  0  0  0  0  0  0
  -12.2812   -0.6684  -23.7185 C   0  0  0  0  0  0  0  0  0  0  0  0
  -13.6182   -0.0892  -24.0750 Cl  0  0  0  0  0  0  0  0  0  0  0  0
  -12.1921   -2.0507  -23.1428 C   0  0  0  0  0  0  0  0  0  0  0  0
  -10.8552   -2.6299  -22.7864 C   0  0  0  0  0  0  0  0  0  0  0  0
   -9.6074   -1.8269  -23.0056 C   0  0  0  0  0  0  0  0  0  0  0  0
   -8.2704   -2.4062  -22.6491 C   0  0  0  0  0  0  0  0  0  0  0  0
   -8.1813   -3.7884  -22.0734 O   0  0  0  0  0  0  0  0  0  0  0  0
  -10.2812    3.4633  -25.2381 C   0  0  0  0  0  0  0  0  0  0  0  0
  -10.1319    3.9927  -26.6337 C   0  0  0  0  0  0  0  0  0  0  0  0
  -11.0812    5.0350  -27.1460 N   0  0  0  0  0  0  0  0  0  0  0  0
  -12.1797    5.5479  -26.2627 C   0  0  0  0  0  0  0  0  0  0  0  0
  -12.3289    5.0185  -24.8672 C   0  0  0  0  0  0  0  0  0  0  0  0
  -13.4275    5.5315  -23.9839 C   0  0  0  0  0  0  0  0  0  0  0  0
  -13.5767    5.0020  -22.5884 C   0  0  0  0  0  0  0  0  0  0  0  0
  -12.6274    3.9597  -22.0761 C   0  0  0  0  0  0  0  0  0  0  0  0
  -11.5289    3.4468  -22.9594 C   0  0  0  0  0  0  0  0  0  0  0  0
  -11.3797    3.9762  -24.3549 C   0  0  0  0  0  0  0  0  0  0  0  0
   -5.6856   -2.1824  -22.5118 C   0  0  0  0  0  0  0  0  0  0  0  0
   -5.5738   -6.0135  -21.4821 C   0  0  0  0  0  0  0  0  0  0  0  0
   -5.6540   -4.7733  -22.3221 N   0  0  0  0  0  0  0  0  0  0  0  0
   -5.6054   -3.4225  -21.6718 C   0  0  0  0  0  0  0  0  0  0  0  0
   -5.4766   -3.3118  -20.1814 O   0  0  0  0  0  0  0  0  0  0  0  0
   -5.7385   -4.8459  -23.3003 H   0  0  0  0  0  0  0  0  0  0  0  0
   -5.8469    0.9712  -23.8214 C   0  0  0  0  0  0  0  0  0  0  0  0
   -4.9886    1.9619  -23.0923 N   0  0  0  0  0  0  0  0  0  0  0  0
   -4.6753    2.7741  -23.5520 H   0  0  0  0  0  0  0  0  0  0  0  0
   -4.6074    1.7152  -21.6626 C   0  0  0  0  0  0  0  0  0  0  0  0
   -3.4274    2.3067  -20.9501 C   0  0  0  0  0  0  0  0  0  0  0  0
   -3.4301    1.7907  -19.5416 N   0  0  0  0  0  0  0  0  0  0  0  0
   -4.6118    0.8803  -19.3837 N   0  0  0  0  0  0  0  0  0  0  0  0
   -4.9979    0.1456  -18.1343 C   0  0  0  0  0  0  0  0  0  0  0  0
   -5.3394    0.8336  -20.6946 C   0  0  0  0  0  0  0  0  0  0  0  0
 29 30  1  0  0  0
 30 31  1  0  0  0
 31 32  2  0  0  0
 31 28  1  0  0  0
 28  1  1  0  0  0
  1  2  1  0  0  0
  3  2  1  0  0  0
  3  4  1  0  0  0
  4  5  2  0  0  0
  4  6  1  0  0  0
  6 18  1  0  0  0
 18 19  2  0  0  0
 19 20  1  0  0  0
 20 21  2  0  0  0
 21 22  1  0  0  0
 22 23  2  0  0  0
 23 24  1  0  0  0
 24 25  2  0  0  0
 25 26  1  0  0  0
 26 27  2  0  0  0
  6  7  1  0  0  0
  7  8  1  0  0  0
  8 34  1  0  0  0
 34 35  1  0  0  0
 35 37  1  0  0  0
 37 38  1  0  0  0
 38 39  2  0  0  0
 39 40  1  0  0  0
 40 41  1  0  0  0
 40 42  1  0  0  0
  3  9  1  0  0  0
  9 10  2  0  0  0
 10 11  1  0  0  0
 11 12  1  0  0  0
 11 13  2  0  0  0
 13 14  1  0  0  0
 14 15  2  0  0  0
 15 16  1  0  0  0
 16 17  2  0  0  0
 16  1  1  0  0  0
  8  3  1  0  0  0
 42 37  2  0  0  0
 15  9  1  0  0  0
 27 18  1  0  0  0
 27 22  1  0  0  0
 30 33  1  0  0  0
 35 36  1  0  0  0
M  END
> <minimizedAffinity>
-7.98125

> <CNNscore>
0.4873702526

> <CNNaffinity>
6.8951082230

> <CNN_VS>
3.3604705334

> <CNNaffinity_variance>
0.1628644764

$$$$



 42 47  0  0  0  0  0  0  0  0999 V2000
  -11.5268    3.9242  -24.0125 N   0  0  0  0  0  0  0  0  0  0  0  0
  -10.1534    3.3399  -23.8631 C   0  0  0  0  0  0  0  0  0  0  0  0
   -9.9871    1.8725  -23.6005 C   0  0  0  0  0  0  0  0  0  0  0  0
   -9.6659    0.4312  -23.3371 C   0  0  0  0  0  0  0  0  0  0  0  0
  -10.2290   -0.6325  -23.1701 O   0  0  0  0  0  0  0  0  0  0  0  0
   -8.1740    0.2949  -23.2621 N   0  0  0  0  0  0  0  0  0  0  0  0
   -7.5731    1.6520  -23.4792 C   0  0  0  0  0  0  0  0  0  0  0  0
   -8.6936    2.6270  -23.6883 C   0  0  0  0  0  0  0  0  0  0  0  0
  -11.1942    0.9893  -23.4872 C   0  0  0  0  0  0  0  0  0  0  0  0
  -11.0279   -0.4781  -23.2245 C   0  0  0  0  0  0  0  0  0  0  0  0
  -12.2350   -1.3612  -23.1112 C   0  0  0  0  0  0  0  0  0  0  0  0
  -12.0687   -2.8287  -22.8486 Cl  0  0  0  0  0  0  0  0  0  0  0  0
  -13.6084   -0.7770  -23.2606 C   0  0  0  0  0  0  0  0  0  0  0  0
  -13.7748    0.6904  -23.5232 C   0  0  0  0  0  0  0  0  0  0  0  0
  -12.5677    1.5736  -23.6365 C   0  0  0  0  0  0  0  0  0  0  0  0
  -12.7339    3.0410  -23.8992 C   0  0  0  0  0  0  0  0  0  0  0  0
  -14.1074    3.6253  -24.0485 O   0  0  0  0  0  0  0  0  0  0  0  0
   -7.4161   -0.9755  -23.0137 C   0  0  0  0  0  0  0  0  0  0  0  0
   -7.2188   -1.9611  -24.1271 C   0  0  0  0  0  0  0  0  0  0  0  0
   -6.4609   -3.2315  -23.8787 N   0  0  0  0  0  0  0  0  0  0  0  0
   -5.9003   -3.5162  -22.5169 C   0  0  0  0  0  0  0  0  0  0  0  0
   -6.0975   -2.5306  -21.4035 C   0  0  0  0  0  0  0  0  0  0  0  0
   -5.5368   -2.8154  -20.0416 C   0  0  0  0  0  0  0  0  0  0  0  0
   -5.7342   -1.8297  -18.9283 C   0  0  0  0  0  0  0  0  0  0  0  0
   -6.4921   -0.5593  -19.1767 C   0  0  0  0  0  0  0  0  0  0  0  0
   -7.0527   -0.2746  -20.5385 C   0  0  0  0  0  0  0  0  0  0  0  0
   -6.8554   -1.2602  -21.6519 C   0  0  0  0  0  0  0  0  0  0  0  0
  -11.6931    5.3917  -24.2752 C   0  0  0  0  0  0  0  0  0  0  0  0
  -14.0111    6.4623  -27.3133 C   0  0  0  0  0  0  0  0  0  0  0  0
  -13.5818    5.9871  -25.9569 N   0  0  0  0  0  0  0  0  0  0  0  0
  -12.1225    5.8669  -25.6316 C   0  0  0  0  0  0  0  0  0  0  0  0
  -11.0924    6.2218  -26.6627 O   0  0  0  0  0  0  0  0  0  0  0  0
  -14.2578    5.7542  -25.2802 H   0  0  0  0  0  0  0  0  0  0  0  0
   -8.5465    4.0983  -23.9409 C   0  0  0  0  0  0  0  0  0  0  0  0
   -8.1186    5.0109  -22.8301 N   0  0  0  0  0  0  0  0  0  0  0  0
   -8.7778    5.3255  -22.1700 H   0  0  0  0  0  0  0  0  0  0  0  0
   -6.6864    5.4442  -22.7250 C   0  0  0  0  0  0  0  0  0  0  0  0
   -6.1918    6.7050  -22.0802 C   0  0  0  0  0  0  0  0  0  0  0  0
   -4.6971    6.7328  -22.2029 N   0  0  0  0  0  0  0  0  0  0  0  0
   -4.2679    5.4893  -22.9236 N   0  0  0  0  0  0  0  0  0  0  0  0
   -2.8570    5.1089  -23.2622 C   0  0  0  0  0  0  0  0  0  0  0  0
   -5.4974    4.6929  -23.2463 C   0  0  0  0  0  0  0  0  0  0  0  0
 29 30  1  0  0  0
 30 31  1  0  0  0
 31 32  2  0  0  0
 31 28  1  0  0  0
 28  1  1  0  0  0
  1  2  1  0  0  0
  3  2  1  0  0  0
  3  4  1  0  0  0
  4  5  2  0  0  0
  4  6  1  0  0  0
  6 18  1  0  0  0
 18 19  2  0  0  0
 19 20  1  0  0  0
 20 21  2  0  0  0
 21 22  1  0  0  0
 22 23  2  0  0  0
 23 24  1  0  0  0
 24 25  2  0  0  0
 25 26  1  0  0  0
 26 27  2  0  0  0
  6  7  1  0  0  0
  7  8  1  0  0  0
  8 34  1  0  0  0
 34 35  1  0  0  0
 35 37  1  0  0  0
 37 38  1  0  0  0
 38 39  2  0  0  0
 39 40  1  0  0  0
 40 41  1  0  0  0
 40 42  1  0  0  0
  3  9  1  0  0  0
  9 10  2  0  0  0
 10 11  1  0  0  0
 11 12  1  0  0  0
 11 13  2  0  0  0
 13 14  1  0  0  0
 14 15  2  0  0  0
 15 16  1  0  0  0
 16 17  2  0  0  0
 16  1  1  0  0  0
  8  3  1  0  0  0
 42 37  2  0  0  0
 15  9  1  0  0  0
 27 18  1  0  0  0
 27 22  1  0  0  0
 30 33  1  0  0  0
 35 36  1  0  0  0
M  END
> <minimizedAffinity>
-8.14476

> <CNNscore>
0.3347607851

> <CNNaffinity>
6.8601455688

> <CNN_VS>
2.2965078354

> <CNNaffinity_variance>
0.1218166724

$$$$



 42 47  0  0  0  0  0  0  0  0999 V2000
   -3.1469    0.6742  -23.9916 N   0  0  0  0  0  0  0  0  0  0  0  0
   -4.4641    0.8253  -23.2899 C   0  0  0  0  0  0  0  0  0  0  0  0
   -5.6396   -0.0041  -23.7146 C   0  0  0  0  0  0  0  0  0  0  0  0
   -6.8966   -0.7607  -24.0267 C   0  0  0  0  0  0  0  0  0  0  0  0
   -7.3045   -1.6136  -24.7899 O   0  0  0  0  0  0  0  0  0  0  0  0
   -7.9649   -0.2941  -23.0827 N   0  0  0  0  0  0  0  0  0  0  0  0
   -7.3681    0.7509  -22.1872 C   0  0  0  0  0  0  0  0  0  0  0  0
   -5.9309    0.9301  -22.5778 C   0  0  0  0  0  0  0  0  0  0  0  0
   -5.4979   -0.9846  -24.8410 C   0  0  0  0  0  0  0  0  0  0  0  0
   -6.6733   -1.8140  -25.2656 C   0  0  0  0  0  0  0  0  0  0  0  0
   -6.5316   -2.7945  -26.3919 C   0  0  0  0  0  0  0  0  0  0  0  0
   -7.7071   -3.6239  -26.8167 Cl  0  0  0  0  0  0  0  0  0  0  0  0
   -5.2144   -2.9455  -27.0935 C   0  0  0  0  0  0  0  0  0  0  0  0
   -4.0390   -2.1162  -26.6689 C   0  0  0  0  0  0  0  0  0  0  0  0
   -4.1807   -1.1357  -25.5426 C   0  0  0  0  0  0  0  0  0  0  0  0
   -3.0052   -0.3062  -25.1178 C   0  0  0  0  0  0  0  0  0  0  0  0
   -1.6881   -0.4573  -25.8194 O   0  0  0  0  0  0  0  0  0  0  0  0
   -9.3813   -0.7861  -23.0415 C   0  0  0  0  0  0  0  0  0  0  0  0
   -9.6666   -2.2256  -22.7307 C   0  0  0  0  0  0  0  0  0  0  0  0
  -11.0830   -2.7176  -22.6895 N   0  0  0  0  0  0  0  0  0  0  0  0
  -12.2141   -1.7701  -22.9590 C   0  0  0  0  0  0  0  0  0  0  0  0
  -11.9289   -0.3306  -23.2697 C   0  0  0  0  0  0  0  0  0  0  0  0
  -13.0602    0.6169  -23.5392 C   0  0  0  0  0  0  0  0  0  0  0  0
  -12.7749    2.0564  -23.8499 C   0  0  0  0  0  0  0  0  0  0  0  0
  -11.3585    2.5484  -23.8911 C   0  0  0  0  0  0  0  0  0  0  0  0
  -10.2273    1.6009  -23.6217 C   0  0  0  0  0  0  0  0  0  0  0  0
  -10.5125    0.1614  -23.3109 C   0  0  0  0  0  0  0  0  0  0  0  0
   -1.9715    1.5037  -23.5668 C   0  0  0  0  0  0  0  0  0  0  0  0
    1.1318    0.4214  -21.3424 C   0  0  0  0  0  0  0  0  0  0  0  0
    0.3147    0.8319  -22.5314 N   0  0  0  0  0  0  0  0  0  0  0  0
   -1.1543    1.0931  -22.3778 C   0  0  0  0  0  0  0  0  0  0  0  0
   -1.8063    0.9438  -21.0351 O   0  0  0  0  0  0  0  0  0  0  0  0
    0.7426    0.9299  -23.4126 H   0  0  0  0  0  0  0  0  0  0  0  0
   -4.9563    1.8772  -21.9429 C   0  0  0  0  0  0  0  0  0  0  0  0
   -4.6879    1.8010  -20.4692 N   0  0  0  0  0  0  0  0  0  0  0  0
   -4.3266    2.5836  -19.9936 H   0  0  0  0  0  0  0  0  0  0  0  0
   -4.9700    0.5325  -19.7200 C   0  0  0  0  0  0  0  0  0  0  0  0
   -5.2679    0.4220  -18.2540 C   0  0  0  0  0  0  0  0  0  0  0  0
   -5.4858   -1.0270  -17.9333 N   0  0  0  0  0  0  0  0  0  0  0  0
   -5.3226   -1.8120  -19.2010 N   0  0  0  0  0  0  0  0  0  0  0  0
   -5.4549   -3.2997  -19.3400 C   0  0  0  0  0  0  0  0  0  0  0  0
   -5.0038   -0.8482  -20.3052 C   0  0  0  0  0  0  0  0  0  0  0  0
 29 30  1  0  0  0
 30 31  1  0  0  0
 31 32  2  0  0  0
 31 28  1  0  0  0
 28  1  1  0  0  0
  1  2  1  0  0  0
  3  2  1  0  0  0
  3  4  1  0  0  0
  4  5  2  0  0  0
  4  6  1  0  0  0
  6 18  1  0  0  0
 18 19  2  0  0  0
 19 20  1  0  0  0
 20 21  2  0  0  0
 21 22  1  0  0  0
 22 23  2  0  0  0
 23 24  1  0  0  0
 24 25  2  0  0  0
 25 26  1  0  0  0
 26 27  2  0  0  0
  6  7  1  0  0  0
  7  8  1  0  0  0
  8 34  1  0  0  0
 34 35  1  0  0  0
 35 37  1  0  0  0
 37 38  1  0  0  0
 38 39  2  0  0  0
 39 40  1  0  0  0
 40 41  1  0  0  0
 40 42  1  0  0  0
  3  9  1  0  0  0
  9 10  2  0  0  0
 10 11  1  0  0  0
 11 12  1  0  0  0
 11 13  2  0  0  0
 13 14  1  0  0  0
 14 15  2  0  0  0
 15 16  1  0  0  0
 16 17  2  0  0  0
 16  1  1  0  0  0
  8  3  1  0  0  0
 42 37  2  0  0  0
 15  9  1  0  0  0
 27 18  1  0  0  0
 27 22  1  0  0  0
 30 33  1  0  0  0
 35 36  1  0  0  0
M  END
> <minimizedAffinity>
-7.75507

> <CNNscore>
0.2084707618

> <CNNaffinity>
6.1614561081

> <CNN_VS>
1.2844834328

> <CNNaffinity_variance>
0.5730391145

$$$$



 42 47  0  0  0  0  0  0  0  0999 V2000
   -3.7836    1.9200  -23.3756 N   0  0  0  0  0  0  0  0  0  0  0  0
   -5.0313    1.0876  -23.3943 C   0  0  0  0  0  0  0  0  0  0  0  0
   -6.3753    1.7519  -23.4426 C   0  0  0  0  0  0  0  0  0  0  0  0
   -7.7815    2.2719  -23.4901 C   0  0  0  0  0  0  0  0  0  0  0  0
   -8.3830    3.3271  -23.5255 O   0  0  0  0  0  0  0  0  0  0  0  0
   -8.7112    1.0948  -23.4939 N   0  0  0  0  0  0  0  0  0  0  0  0
   -7.8797   -0.1528  -23.4488 C   0  0  0  0  0  0  0  0  0  0  0  0
   -6.4360    0.2533  -23.4171 C   0  0  0  0  0  0  0  0  0  0  0  0
   -6.4716    3.2485  -23.4724 C   0  0  0  0  0  0  0  0  0  0  0  0
   -7.8156    3.9128  -23.5207 C   0  0  0  0  0  0  0  0  0  0  0  0
   -7.9119    5.4094  -23.5505 C   0  0  0  0  0  0  0  0  0  0  0  0
   -9.2559    6.0737  -23.5988 Cl  0  0  0  0  0  0  0  0  0  0  0  0
   -6.6641    6.2417  -23.5318 C   0  0  0  0  0  0  0  0  0  0  0  0
   -5.3201    5.5775  -23.4834 C   0  0  0  0  0  0  0  0  0  0  0  0
   -5.2239    4.0809  -23.4537 C   0  0  0  0  0  0  0  0  0  0  0  0
   -3.8798    3.4165  -23.4053 C   0  0  0  0  0  0  0  0  0  0  0  0
   -2.6321    4.2489  -23.3866 O   0  0  0  0  0  0  0  0  0  0  0  0
  -10.2094    1.1548  -23.5355 C   0  0  0  0  0  0  0  0  0  0  0  0
  -10.8993    2.4415  -23.8799 C   0  0  0  0  0  0  0  0  0  0  0  0
  -12.3975    2.5015  -23.9215 N   0  0  0  0  0  0  0  0  0  0  0  0
  -13.2059    1.2748  -23.6187 C   0  0  0  0  0  0  0  0  0  0  0  0
  -12.5160   -0.0119  -23.2744 C   0  0  0  0  0  0  0  0  0  0  0  0
  -13.3245   -1.2387  -22.9717 C   0  0  0  0  0  0  0  0  0  0  0  0
  -12.6345   -2.5254  -22.6274 C   0  0  0  0  0  0  0  0  0  0  0  0
  -11.1363   -2.5853  -22.5858 C   0  0  0  0  0  0  0  0  0  0  0  0
  -10.3279   -1.3586  -22.8885 C   0  0  0  0  0  0  0  0  0  0  0  0
  -11.0178   -0.0719  -23.2328 C   0  0  0  0  0  0  0  0  0  0  0  0
   -2.4395    1.2556  -23.3272 C   0  0  0  0  0  0  0  0  0  0  0  0
    0.6722    2.5938  -21.2593 C   0  0  0  0  0  0  0  0  0  0  0  0
   -0.2577    2.3225  -22.4046 N   0  0  0  0  0  0  0  0  0  0  0  0
   -1.5096    1.5269  -22.1819 C   0  0  0  0  0  0  0  0  0  0  0  0
   -1.8318    1.0026  -20.8139 O   0  0  0  0  0  0  0  0  0  0  0  0
   -0.0463    2.6666  -23.3024 H   0  0  0  0  0  0  0  0  0  0  0  0
   -5.2596   -0.6760  -23.3685 C   0  0  0  0  0  0  0  0  0  0  0  0
   -5.2833   -1.8691  -22.4597 N   0  0  0  0  0  0  0  0  0  0  0  0
   -5.2252   -2.7765  -22.8371 H   0  0  0  0  0  0  0  0  0  0  0  0
   -5.3956   -1.6796  -20.9760 C   0  0  0  0  0  0  0  0  0  0  0  0
   -5.7168   -2.7474  -19.9726 C   0  0  0  0  0  0  0  0  0  0  0  0
   -5.7261   -2.1168  -18.6117 N   0  0  0  0  0  0  0  0  0  0  0  0
   -5.4105   -0.6594  -18.7739 N   0  0  0  0  0  0  0  0  0  0  0  0
   -5.3159    0.3505  -17.6688 C   0  0  0  0  0  0  0  0  0  0  0  0
   -5.2063   -0.3892  -20.2351 C   0  0  0  0  0  0  0  0  0  0  0  0
 29 30  1  0  0  0
 30 31  1  0  0  0
 31 32  2  0  0  0
 31 28  1  0  0  0
 28  1  1  0  0  0
  1  2  1  0  0  0
  3  2  1  0  0  0
  3  4  1  0  0  0
  4  5  2  0  0  0
  4  6  1  0  0  0
  6 18  1  0  0  0
 18 19  2  0  0  0
 19 20  1  0  0  0
 20 21  2  0  0  0
 21 22  1  0  0  0
 22 23  2  0  0  0
 23 24  1  0  0  0
 24 25  2  0  0  0
 25 26  1  0  0  0
 26 27  2  0  0  0
  6  7  1  0  0  0
  7  8  1  0  0  0
  8 34  1  0  0  0
 34 35  1  0  0  0
 35 37  1  0  0  0
 37 38  1  0  0  0
 38 39  2  0  0  0
 39 40  1  0  0  0
 40 41  1  0  0  0
 40 42  1  0  0  0
  3  9  1  0  0  0
  9 10  2  0  0  0
 10 11  1  0  0  0
 11 12  1  0  0  0
 11 13  2  0  0  0
 13 14  1  0  0  0
 14 15  2  0  0  0
 15 16  1  0  0  0
 16 17  2  0  0  0
 16  1  1  0  0  0
  8  3  1  0  0  0
 42 37  2  0  0  0
 15  9  1  0  0  0
 27 18  1  0  0  0
 27 22  1  0  0  0
 30 33  1  0  0  0
 35 36  1  0  0  0
M  END
> <minimizedAffinity>
-7.95596

> <CNNscore>
0.1935070753

> <CNNaffinity>
6.2796201706

> <CNN_VS>
1.2151509523

> <CNNaffinity_variance>
0.4839456975

$$$$



 42 47  0  0  0  0  0  0  0  0999 V2000
   -8.6344    2.5371  -24.1273 N   0  0  0  0  0  0  0  0  0  0  0  0
   -7.7878    1.3035  -24.2339 C   0  0  0  0  0  0  0  0  0  0  0  0
   -8.4048   -0.0491  -24.0340 C   0  0  0  0  0  0  0  0  0  0  0  0
   -8.8789   -1.4615  -23.8600 C   0  0  0  0  0  0  0  0  0  0  0  0
   -9.8973   -2.0783  -23.6177 O   0  0  0  0  0  0  0  0  0  0  0  0
   -7.7026   -2.3723  -24.0518 N   0  0  0  0  0  0  0  0  0  0  0  0
   -6.5014   -1.5228  -24.3443 C   0  0  0  0  0  0  0  0  0  0  0  0
   -6.9354   -0.0870  -24.3333 C   0  0  0  0  0  0  0  0  0  0  0  0
   -9.8683   -0.1680  -23.7273 C   0  0  0  0  0  0  0  0  0  0  0  0
  -10.4852   -1.5205  -23.5274 C   0  0  0  0  0  0  0  0  0  0  0  0
  -11.9487   -1.6394  -23.2208 C   0  0  0  0  0  0  0  0  0  0  0  0
  -12.5657   -2.9920  -23.0208 Cl  0  0  0  0  0  0  0  0  0  0  0  0
  -12.7953   -0.4057  -23.1141 C   0  0  0  0  0  0  0  0  0  0  0  0
  -12.1784    0.9468  -23.3141 C   0  0  0  0  0  0  0  0  0  0  0  0
  -10.7149    1.0657  -23.6207 C   0  0  0  0  0  0  0  0  0  0  0  0
  -10.0979    2.4183  -23.8207 C   0  0  0  0  0  0  0  0  0  0  0  0
  -10.9445    3.6519  -23.7140 O   0  0  0  0  0  0  0  0  0  0  0  0
   -7.7237   -3.8697  -23.9662 C   0  0  0  0  0  0  0  0  0  0  0  0
   -7.2196   -4.5576  -22.7322 C   0  0  0  0  0  0  0  0  0  0  0  0
   -7.2408   -6.0550  -22.6465 N   0  0  0  0  0  0  0  0  0  0  0  0
   -7.7660   -6.8645  -23.7949 C   0  0  0  0  0  0  0  0  0  0  0  0
   -8.2702   -6.1766  -25.0289 C   0  0  0  0  0  0  0  0  0  0  0  0
   -8.7955   -6.9862  -26.1773 C   0  0  0  0  0  0  0  0  0  0  0  0
   -9.2996   -6.2983  -27.4112 C   0  0  0  0  0  0  0  0  0  0  0  0
   -9.2784   -4.8009  -27.4969 C   0  0  0  0  0  0  0  0  0  0  0  0
   -8.7531   -3.9913  -26.3485 C   0  0  0  0  0  0  0  0  0  0  0  0
   -8.2490   -4.6792  -25.1145 C   0  0  0  0  0  0  0  0  0  0  0  0
   -8.0174    3.8897  -24.3273 C   0  0  0  0  0  0  0  0  0  0  0  0
   -6.4437    6.7186  -22.0315 C   0  0  0  0  0  0  0  0  0  0  0  0
   -7.1709    6.0515  -23.1612 N   0  0  0  0  0  0  0  0  0  0  0  0
   -7.2902    4.5568  -23.1976 C   0  0  0  0  0  0  0  0  0  0  0  0
   -6.6824    3.7290  -22.1042 O   0  0  0  0  0  0  0  0  0  0  0  0
   -7.5698    6.5948  -23.8788 H   0  0  0  0  0  0  0  0  0  0  0  0
   -6.0546    1.1022  -24.5785 C   0  0  0  0  0  0  0  0  0  0  0  0
   -4.5806    1.0106  -24.3164 N   0  0  0  0  0  0  0  0  0  0  0  0
   -3.9472    0.9875  -25.0698 H   0  0  0  0  0  0  0  0  0  0  0  0
   -4.0715    0.9542  -22.9066 C   0  0  0  0  0  0  0  0  0  0  0  0
   -2.6463    1.1366  -22.4759 C   0  0  0  0  0  0  0  0  0  0  0  0
   -2.5922    1.0007  -20.9831 N   0  0  0  0  0  0  0  0  0  0  0  0
   -3.9840    0.7342  -20.4911 N   0  0  0  0  0  0  0  0  0  0  0  0
   -4.3902    0.5320  -19.0614 C   0  0  0  0  0  0  0  0  0  0  0  0
   -4.8983    0.7055  -21.6799 C   0  0  0  0  0  0  0  0  0  0  0  0
 29 30  1  0  0  0
 30 31  1  0  0  0
 31 32  2  0  0  0
 31 28  1  0  0  0
 28  1  1  0  0  0
  1  2  1  0  0  0
  3  2  1  0  0  0
  3  4  1  0  0  0
  4  5  2  0  0  0
  4  6  1  0  0  0
  6 18  1  0  0  0
 18 19  2  0  0  0
 19 20  1  0  0  0
 20 21  2  0  0  0
 21 22  1  0  0  0
 22 23  2  0  0  0
 23 24  1  0  0  0
 24 25  2  0  0  0
 25 26  1  0  0  0
 26 27  2  0  0  0
  6  7  1  0  0  0
  7  8  1  0  0  0
  8 34  1  0  0  0
 34 35  1  0  0  0
 35 37  1  0  0  0
 37 38  1  0  0  0
 38 39  2  0  0  0
 39 40  1  0  0  0
 40 41  1  0  0  0
 40 42  1  0  0  0
  3  9  1  0  0  0
  9 10  2  0  0  0
 10 11  1  0  0  0
 11 12  1  0  0  0
 11 13  2  0  0  0
 13 14  1  0  0  0
 14 15  2  0  0  0
 15 16  1  0  0  0
 16 17  2  0  0  0
 16  1  1  0  0  0
  8  3  1  0  0  0
 42 37  2  0  0  0
 15  9  1  0  0  0
 27 18  1  0  0  0
 27 22  1  0  0  0
 30 33  1  0  0  0
 35 36  1  0  0  0
M  END
> <minimizedAffinity>
-7.81675

> <CNNscore>
0.1912732124

> <CNNaffinity>
6.6203713417

> <CNN_VS>
1.2662997246

> <CNNaffinity_variance>
0.1596725285

$$$$



 42 47  0  0  0  0  0  0  0  0999 V2000
   -6.4080   -0.2632  -22.4546 N   0  0  0  0  0  0  0  0  0  0  0  0
   -6.7000    0.9992  -23.2101 C   0  0  0  0  0  0  0  0  0  0  0  0
   -8.0892    1.2726  -23.7055 C   0  0  0  0  0  0  0  0  0  0  0  0
   -9.4222    1.6803  -24.2594 C   0  0  0  0  0  0  0  0  0  0  0  0
  -10.5657    1.2751  -24.3264 O   0  0  0  0  0  0  0  0  0  0  0  0
   -9.2563    3.0087  -24.9361 N   0  0  0  0  0  0  0  0  0  0  0  0
   -7.8208    3.4220  -24.8004 C   0  0  0  0  0  0  0  0  0  0  0  0
   -7.0995    2.3490  -24.0398 C   0  0  0  0  0  0  0  0  0  0  0  0
   -9.1865    0.2834  -23.4452 C   0  0  0  0  0  0  0  0  0  0  0  0
  -10.5757    0.5568  -23.9405 C   0  0  0  0  0  0  0  0  0  0  0  0
  -11.6729   -0.4323  -23.6803 C   0  0  0  0  0  0  0  0  0  0  0  0
  -13.0622   -0.1590  -24.1756 Cl  0  0  0  0  0  0  0  0  0  0  0  0
  -11.3809   -1.6948  -22.9247 C   0  0  0  0  0  0  0  0  0  0  0  0
   -9.9917   -1.9681  -22.4294 C   0  0  0  0  0  0  0  0  0  0  0  0
   -8.8945   -0.9790  -22.6896 C   0  0  0  0  0  0  0  0  0  0  0  0
   -7.5052   -1.2524  -22.1943 C   0  0  0  0  0  0  0  0  0  0  0  0
   -7.2132   -2.5148  -21.4387 O   0  0  0  0  0  0  0  0  0  0  0  0
  -10.3364    3.7872  -25.6271 C   0  0  0  0  0  0  0  0  0  0  0  0
  -10.2987    3.9626  -27.1164 C   0  0  0  0  0  0  0  0  0  0  0  0
  -11.3788    4.7410  -27.8074 N   0  0  0  0  0  0  0  0  0  0  0  0
  -12.4964    5.3440  -27.0092 C   0  0  0  0  0  0  0  0  0  0  0  0
  -12.5341    5.1686  -25.5200 C   0  0  0  0  0  0  0  0  0  0  0  0
  -13.6518    5.7717  -24.7217 C   0  0  0  0  0  0  0  0  0  0  0  0
  -13.6893    5.5962  -23.2325 C   0  0  0  0  0  0  0  0  0  0  0  0
  -12.6093    4.8178  -22.5415 C   0  0  0  0  0  0  0  0  0  0  0  0
  -11.4916    4.2148  -23.3397 C   0  0  0  0  0  0  0  0  0  0  0  0
  -11.4540    4.3902  -24.8289 C   0  0  0  0  0  0  0  0  0  0  0  0
   -5.0188   -0.5366  -21.9592 C   0  0  0  0  0  0  0  0  0  0  0  0
   -5.1415   -0.1260  -18.0138 C   0  0  0  0  0  0  0  0  0  0  0  0
   -5.5281   -0.5085  -19.4117 N   0  0  0  0  0  0  0  0  0  0  0  0
   -4.6321   -0.1541  -20.5613 C   0  0  0  0  0  0  0  0  0  0  0  0
   -3.3495    0.5830  -20.3129 O   0  0  0  0  0  0  0  0  0  0  0  0
   -6.3700   -0.9923  -19.5748 H   0  0  0  0  0  0  0  0  0  0  0  0
   -5.6440    2.3519  -23.6773 C   0  0  0  0  0  0  0  0  0  0  0  0
   -4.6027    2.2726  -24.7539 N   0  0  0  0  0  0  0  0  0  0  0  0
   -4.8306    2.5223  -25.6785 H   0  0  0  0  0  0  0  0  0  0  0  0
   -3.2140    1.8128  -24.4219 C   0  0  0  0  0  0  0  0  0  0  0  0
   -2.5458    0.5762  -24.9458 C   0  0  0  0  0  0  0  0  0  0  0  0
   -1.1686    0.5081  -24.3554 N   0  0  0  0  0  0  0  0  0  0  0  0
   -0.9856    1.7025  -23.4667 N   0  0  0  0  0  0  0  0  0  0  0  0
    0.2455    2.0326  -22.6757 C   0  0  0  0  0  0  0  0  0  0  0  0
   -2.2497    2.5089  -23.5078 C   0  0  0  0  0  0  0  0  0  0  0  0
 29 30  1  0  0  0
 30 31  1  0  0  0
 31 32  2  0  0  0
 31 28  1  0  0  0
 28  1  1  0  0  0
  1  2  1  0  0  0
  3  2  1  0  0  0
  3  4  1  0  0  0
  4  5  2  0  0  0
  4  6  1  0  0  0
  6 18  1  0  0  0
 18 19  2  0  0  0
 19 20  1  0  0  0
 20 21  2  0  0  0
 21 22  1  0  0  0
 22 23  2  0  0  0
 23 24  1  0  0  0
 24 25  2  0  0  0
 25 26  1  0  0  0
 26 27  2  0  0  0
  6  7  1  0  0  0
  7  8  1  0  0  0
  8 34  1  0  0  0
 34 35  1  0  0  0
 35 37  1  0  0  0
 37 38  1  0  0  0
 38 39  2  0  0  0
 39 40  1  0  0  0
 40 41  1  0  0  0
 40 42  1  0  0  0
  3  9  1  0  0  0
  9 10  2  0  0  0
 10 11  1  0  0  0
 11 12  1  0  0  0
 11 13  2  0  0  0
 13 14  1  0  0  0
 14 15  2  0  0  0
 15 16  1  0  0  0
 16 17  2  0  0  0
 16  1  1  0  0  0
  8  3  1  0  0  0
 42 37  2  0  0  0
 15  9  1  0  0  0
 27 18  1  0  0  0
 27 22  1  0  0  0
 30 33  1  0  0  0
 35 36  1  0  0  0
M  END
> <minimizedAffinity>
-7.56356

> <CNNscore>
0.1812222004

> <CNNaffinity>
6.3201417923

> <CNN_VS>
1.1453499794

> <CNNaffinity_variance>
0.1282407492

$$$$



 42 47  0  0  0  0  0  0  0  0999 V2000
   -8.6580    2.5745  -24.1784 N   0  0  0  0  0  0  0  0  0  0  0  0
   -7.8076    1.3432  -24.2825 C   0  0  0  0  0  0  0  0  0  0  0  0
   -8.4195   -0.0105  -24.0749 C   0  0  0  0  0  0  0  0  0  0  0  0
   -8.8883   -1.4237  -23.8936 C   0  0  0  0  0  0  0  0  0  0  0  0
   -9.9040   -2.0429  -23.6455 O   0  0  0  0  0  0  0  0  0  0  0  0
   -7.7096   -2.3314  -24.0852 N   0  0  0  0  0  0  0  0  0  0  0  0
   -6.5122   -1.4792  -24.3849 C   0  0  0  0  0  0  0  0  0  0  0  0
   -6.9509   -0.0448  -24.3786 C   0  0  0  0  0  0  0  0  0  0  0  0
   -9.8817   -0.1329  -23.7633 C   0  0  0  0  0  0  0  0  0  0  0  0
  -10.4935   -1.4866  -23.5558 C   0  0  0  0  0  0  0  0  0  0  0  0
  -11.9556   -1.6090  -23.2442 C   0  0  0  0  0  0  0  0  0  0  0  0
  -12.5675   -2.9628  -23.0366 Cl  0  0  0  0  0  0  0  0  0  0  0  0
  -12.8059   -0.3777  -23.1401 C   0  0  0  0  0  0  0  0  0  0  0  0
  -12.1941    0.9760  -23.3477 C   0  0  0  0  0  0  0  0  0  0  0  0
  -10.7320    1.0984  -23.6593 C   0  0  0  0  0  0  0  0  0  0  0  0
  -10.1201    2.4521  -23.8668 C   0  0  0  0  0  0  0  0  0  0  0  0
  -10.9704    3.6834  -23.7628 O   0  0  0  0  0  0  0  0  0  0  0  0
   -7.7256   -3.8285  -23.9932 C   0  0  0  0  0  0  0  0  0  0  0  0
   -7.1882   -4.5106  -22.7700 C   0  0  0  0  0  0  0  0  0  0  0  0
   -7.2041   -6.0076  -22.6780 N   0  0  0  0  0  0  0  0  0  0  0  0
   -7.7574   -6.8227  -23.8092 C   0  0  0  0  0  0  0  0  0  0  0  0
   -8.2948   -6.1406  -25.0323 C   0  0  0  0  0  0  0  0  0  0  0  0
   -8.8481   -6.9558  -26.1635 C   0  0  0  0  0  0  0  0  0  0  0  0
   -9.3855   -6.2737  -27.3866 C   0  0  0  0  0  0  0  0  0  0  0  0
   -9.3696   -4.7766  -27.4786 C   0  0  0  0  0  0  0  0  0  0  0  0
   -8.8162   -3.9615  -26.3475 C   0  0  0  0  0  0  0  0  0  0  0  0
   -8.2789   -4.6436  -25.1243 C   0  0  0  0  0  0  0  0  0  0  0  0
   -8.0461    3.9283  -24.3860 C   0  0  0  0  0  0  0  0  0  0  0  0
   -6.3616    5.3415  -27.6898 C   0  0  0  0  0  0  0  0  0  0  0  0
   -6.5204    4.7951  -26.3020 N   0  0  0  0  0  0  0  0  0  0  0  0
   -7.8873    4.4748  -25.7739 C   0  0  0  0  0  0  0  0  0  0  0  0
   -9.0955    4.7009  -26.6336 O   0  0  0  0  0  0  0  0  0  0  0  0
   -5.7275    4.6467  -25.7377 H   0  0  0  0  0  0  0  0  0  0  0  0
   -6.0748    1.1463  -24.6315 C   0  0  0  0  0  0  0  0  0  0  0  0
   -4.6000    1.0613  -24.3716 N   0  0  0  0  0  0  0  0  0  0  0  0
   -3.9671    1.0513  -25.1256 H   0  0  0  0  0  0  0  0  0  0  0  0
   -4.0895    0.9915  -22.9629 C   0  0  0  0  0  0  0  0  0  0  0  0
   -2.6494    1.0235  -22.5445 C   0  0  0  0  0  0  0  0  0  0  0  0
   -2.5993    0.9292  -21.0483 N   0  0  0  0  0  0  0  0  0  0  0  0
   -4.0084    0.8389  -20.5420 N   0  0  0  0  0  0  0  0  0  0  0  0
   -4.4235    0.7294  -19.1048 C   0  0  0  0  0  0  0  0  0  0  0  0
   -4.9294    0.8774  -21.7253 C   0  0  0  0  0  0  0  0  0  0  0  0
 29 30  1  0  0  0
 30 31  1  0  0  0
 31 32  2  0  0  0
 31 28  1  0  0  0
 28  1  1  0  0  0
  1  2  1  0  0  0
  3  2  1  0  0  0
  3  4  1  0  0  0
  4  5  2  0  0  0
  4  6  1  0  0  0
  6 18  1  0  0  0
 18 19  2  0  0  0
 19 20  1  0  0  0
 20 21  2  0  0  0
 21 22  1  0  0  0
 22 23  2  0  0  0
 23 24  1  0  0  0
 24 25  2  0  0  0
 25 26  1  0  0  0
 26 27  2  0  0  0
  6  7  1  0  0  0
  7  8  1  0  0  0
  8 34  1  0  0  0
 34 35  1  0  0  0
 35 37  1  0  0  0
 37 38  1  0  0  0
 38 39  2  0  0  0
 39 40  1  0  0  0
 40 41  1  0  0  0
 40 42  1  0  0  0
  3  9  1  0  0  0
  9 10  2  0  0  0
 10 11  1  0  0  0
 11 12  1  0  0  0
 11 13  2  0  0  0
 13 14  1  0  0  0
 14 15  2  0  0  0
 15 16  1  0  0  0
 16 17  2  0  0  0
 16  1  1  0  0  0
  8  3  1  0  0  0
 42 37  2  0  0  0
 15  9  1  0  0  0
 27 18  1  0  0  0
 27 22  1  0  0  0
 30 33  1  0  0  0
 35 36  1  0  0  0
M  END
> <minimizedAffinity>
-7.43513

> <CNNscore>
0.1536804289

> <CNNaffinity>
6.5785379410

> <CNN_VS>
1.0109925270

> <CNNaffinity_variance>
0.1303534806

$$$$
